
**** 11/28/17 10:17:29 ****** PSpice 17.2.0 (March 2016) ****** ID# 0 ********

 ** Profile: "Constant load-Tran"  [ C:\Users\Nicolai Fransen\Documents\GitHub\E7BACDriver\P-Spice\Simulering med 3f3\flyback_diagram


 ****     CIRCUIT DESCRIPTION


******************************************************************************




** Creating circuit file "Tran.cir" 
** WARNING: THIS AUTOMATICALLY GENERATED FILE MAY BE OVERWRITTEN BY SUBSEQUENT SIMULATIONS

*Libraries: 
* Profile Libraries :
* Local Libraries :
.LIB "../../../ntsv30120ctg.lib" 
.LIB "../../../uccx813-1.lib" 
.LIB "../../../mosfet.lib" 
.LIB "C:/Cadence/Library/Smps/PSpice/Ferrite.lib" 
* From [PSPICE NETLIST] section of C:\Cadence\SPB_Data\cdssetup\OrCAD_PSpice\17.2.0\PSpice.ini file:
.lib "nom.lib" 
.lib "C:\Cadence\Company\OrCAD_PSpice\Models\pspice_demokit.lib" 
.lib "C:\Cadence\Company\OrCAD_PSpice\Models\sample_models.lib" 

*Analysis directives: 
.TRAN/OP 10ns 20m 19.9m 1u SKIPBP 
.OPTIONS ADVCONV
.PROBE64 V(alias(*)) I(alias(*)) W(alias(*)) D(alias(*)) NOISE(alias(*)) 
.INC "..\Constant load.net" 



**** INCLUDING "Constant load.net" ****
* source FLYBACK_DIAGRAM TEST
V_FB_V1         FB_N15349 0 12V
R_FB_Rcomp         FB_N02226 FB_N19124  49.9k TC=0,0 
C_FB_CT         0 FB_N14542  200p  TC=0,0 
C_FB_Cref         0 FB_N14535  1u  TC=0,0 
R_FB_RFB1         FB_N02226 N1356267  18.7k TC=0,0 
C_FB_Cvcc         0 FB_N15349  1u  TC=0,0 
R_FB_PS_Rg         FB_PS_GATE FB_PS_N15331  50R TC=0,0 
Kn_FB_PS_K1         L_FB_PS_Lp L_FB_PS_Ls     0.99733 KRM8/i/AL160_3F3
L_FB_PS_Lp         FB_PS_N12010 FB_PS_N16991  {N}  
R_FB_PS_Rlp         FB_PS_N12010 FB_N14138  {Rlp/3} TC=0,0 
L_FB_PS_Ls         0 FB_PS_N17058  {N}  
R_FB_PS_Rls         FB_PS_ANODE FB_PS_N12024  {Rls/3} TC=0,0 
D_FB_PS_D1         FB_PS_ANODE N1356267 Dntsv30120ctg 
X_FB_PS_U1         FB_N19132 FB_N02226 FB_N14338 FB_N14542 0 FB_PS_N15331
+  FB_N15349 FB_N14535 UCCx813-1
L_FB_PS_Lmp         FB_PS_N16991 FB_PS_DRAIN  {Lm}  
L_FB_PS_Lms         FB_PS_N17058 FB_PS_N12024  {Lm}  
R_FB_PS_RsnubD         N1356267 FB_PS_N18140  27.4R TC=0,0 
C_FB_PS_CsnubM         FB_N14138 FB_PS_N17896  {267p*2}  TC=0,0 
R_FB_PS_RsnubM         FB_PS_DRAIN FB_PS_N17896  23.7R TC=0,0 
C_FB_PS_CsnubD         FB_PS_ANODE FB_PS_N18140  {204p*2}  TC=0,0 
X_FB_PS_M1         FB_PS_DRAIN FB_PS_GATE FB_N14259 IRF630
R_FB_RFB2         0 FB_N02226  2.55k TC=0,0 
R_FB_RT         FB_N14542 FB_N14535  33.2k TC=0,0 
C_FB_IF_Cin1         0 FB_N14138  10u  TC=0,0 
C_FB_IF_Cin2         0 FB_IF_N129151  40u  TC=0,0 
L_FB_IF_Lin         N1353995 FB_N14138  3u  
R_FB_IF_Rin         FB_IF_N129151 FB_N14138  800m TC=0,0 
R_FB_Rcs         0 FB_N14259  167m TC=0,0 
R_FB_Rlp         FB_N14259 FB_N14338  464R TC=0,0 
C_FB_Clp         0 FB_N14338  100p  TC=0,0 
C_FB_Ccomp         FB_N19132 FB_N19124  24.2nF  TC=0,0 
R_FB_RFB3         N1356267 N1356267  51.1R TC=0,0 
L_FB_OF_Lesl4         OUT FB_OF_N24054  {Lesl}  
L_FB_OF_L1         N1356267 FB_OF_N24235  30nH  
C_FB_OF_Cout2         0 FB_OF_N23941  {Cout}  TC=0,0 
R_FB_OF_Resr4         FB_OF_N24074 FB_OF_N24054  {Resr} TC=0,0 
L_FB_OF_L2         FB_OF_N24235 FB_OF_N24253  30nH  
L_FB_OF_Lesl2         FB_OF_N24253 FB_OF_N23789  {Lesl}  
C_FB_OF_Cout3         0 FB_OF_N24074  {Cout}  TC=0,0 
L_FB_OF_Lesl1         FB_OF_N24235 FB_OF_N23692  {Lesl}  
L_FB_OF_L3         FB_OF_N24253 FB_OF_N24257  30nH  
R_FB_OF_Resr2         FB_OF_N23809 FB_OF_N23789  {Resr} TC=0,0 
L_FB_OF_Lesl3         FB_OF_N24257 FB_OF_N23921  {Lesl}  
R_FB_OF_Resr1         FB_OF_N23621 FB_OF_N23692  {Resr} TC=0,0 
C_FB_OF_Cout1         0 FB_OF_N23809  {Cout}  TC=0,0 
L_FB_OF_L4         FB_OF_N24257 OUT  30nH  
R_FB_OF_Resr3         FB_OF_N23941 FB_OF_N23921  {Resr} TC=0,0 
C_FB_OF_Cout         0 FB_OF_N23621  {Cout}  TC=0,0 
V_Vmb         N1353995 0  
+PULSE 0V 26V 1ms 1ms 1ms 0.9s 1s
G_Gload         OUT 0 Value = {V(Out)/Rload*Pscale}
.PARAM  resr=10m pscale=1 iout=2.5a n=19 lm=76nh cout=56uf rlp=160m vout=21v
+  rls=160m lesl=38.78nh rload={8.4r}

**** RESUMING Tran.cir ****
.END

**** 11/28/17 10:17:29 ****** PSpice 17.2.0 (March 2016) ****** ID# 0 ********

 ** Profile: "Constant load-Tran"  [ C:\Users\Nicolai Fransen\Documents\GitHub\E7BACDriver\P-Spice\Simulering med 3f3\flyback_diagram


 ****     Diode MODEL PARAMETERS


******************************************************************************




               Dntsv30120ctg   X_FB_PS_U1._DCLAMP              X_FB_PS_U1._D   
          IS  344.126000E-06   10.000000E-15                   10.000000E-15 
           N    1.966            .01                             .1          
          BV    1.000000E+03                 
         IBV  100.000000E-06                 
          RS     .019557                     
         CJO    1.169220E-09                 
          VJ     .342533                     
           M     .499105                     
          EG     .612843                     
         XTI    5                            


               X_FB_PS_U1._D7_mod              X_FB_PS_M1.MD   X_FB_PS_M1.MD1  
          IS    1.000000E-06                    2.599550E-15    0            
           N     .1                              .818263       50            
          BV  100                             200                            
         IBV  250.000000E-06                 
          RS     .8                              .023224                     
          TT    6.000000E-09                                                 
         CJO    4.000000E-12                  635.847000E-12    1.281880E-09 
          VJ     .6                             5               1.20026      
           M     .45                             .772431         .9          
          FC                   10.000000E-09 
          EG    1                            
         XTI    2.54918                      


               X_FB_PS_M1.MD2  X_FB_PS_M1.MD3  
          IS  100.000000E-12  100.000000E-12 
           N     .413904         .413904     
          RS    3.000000E-06                 


               X_FB_PS_U1.XVccZen.DZEN 
          IS    1.000000E-09 
           N    2            
          BV   13.432        
         IBV    9.259300E-03 
          RS    7.3771       
          TT   20.000000E-09 
         CJO  620.010000E-12 


               X_FB_PS_U1.XEA.DCLAMP 
          IS   10.000000E-15 
          BV   10            
         IBV     .01         
          RS   10            


               X_FB_PS_U1.XEA.DMOD 
          IS   10.000000E-15 
          TT    1.000000E-09 
         CJO   10.000000E-12 


**** 11/28/17 10:17:29 ****** PSpice 17.2.0 (March 2016) ****** ID# 0 ********

 ** Profile: "Constant load-Tran"  [ C:\Users\Nicolai Fransen\Documents\GitHub\E7BACDriver\P-Spice\Simulering med 3f3\flyback_diagram


 ****     BJT MODEL PARAMETERS


******************************************************************************




               X_FB_PS_U1.QN380x               X_FB_PS_U1._PNP 
               NPN                             PNP             
       LEVEL    1                               1            
          IS   15.200000E-15                  100.000000E-18 
          BF  105                             500            
          NF    1                               1            
         VAF   98.5                                          
         IKF     .5                                          
         ISE    8.200000E-12                                 
          NE    2                                            
          BR    4                               1            
          NR    1                               1            
         VAR   20                                            
         IKR     .225                                        
         ISS    0                               0            
          RB    1.49                                         
          RE     .373                           0            
          RC     .149                           0            
         CJE   35.500000E-12                    0            
         VJE     .75                             .75         
         CJC   12.200000E-12                    0            
         VJC     .75                             .75         
         MJC     .33                             .33         
        XCJC    1                               1            
         CJS    0                               0            
         VJS     .75                             .75         
          TF  500.000000E-12                                 
          TR   85.000000E-09                                 
         XTB    1.5                                          
          KF    0                               0            
          AF    1                               1            
          CN    2.42                            2.2          
           D     .87                             .52         


               X_FB_PS_U1.XEA.QPMOD 
               PNP             
       LEVEL    1            
          IS  100.000000E-18 
          BF  100            
          NF    1            
          BR    1            
          NR    1            
         ISS    0            
          RE    0            
          RC    0            
         CJE    0            
         VJE     .75         
         CJC    0            
         VJC     .75         
         MJC     .33         
        XCJC    1            
         CJS    0            
         VJS     .75         
          KF    0            
          AF    1            
          CN    2.2          
           D     .52         


**** 11/28/17 10:17:29 ****** PSpice 17.2.0 (March 2016) ****** ID# 0 ********

 ** Profile: "Constant load-Tran"  [ C:\Users\Nicolai Fransen\Documents\GitHub\E7BACDriver\P-Spice\Simulering med 3f3\flyback_diagram


 ****     MOSFET MODEL PARAMETERS


******************************************************************************




               X_FB_PS_M1.MM   X_FB_PS_U1.XDRIVE._NMOS 
               NMOS            NMOS            
       LEVEL    1               1            
           L  100.000000E-06  100.000000E-06 
           W  100.000000E-06  100.000000E-06 
         VTO    3.90614         3            
          KP    2.70091         1            
       GAMMA    0               0            
         PHI     .6              .6          
      LAMBDA    0               0            
          RD                   10            
          IS    0              10.000000E-15 
          JS    0               0            
          PB     .8              .8          
        PBSW     .8              .8          
          CJ    0             101.851000E-09 
        CJSW    0               0            
        CGSO    7.258450E-06    0            
        CGDO   10.000000E-12    0            
        CGBO    0               0            
        NSUB                    1.000000E+09 
         TOX    0               0            
          XJ    0               0            
       UCRIT   10.000000E+03   10.000000E+03 
      DIOMOD    1               1            
         VFB    0               0            
        LETA    0               0            
        WETA    0               0            
          U0    0               0            
        TEMP    0               0            
         VDD    5               5            
       XPART    0               0            


               X_FB_PS_U1.XDRIVE._PMOS 
               PMOS            
       LEVEL    1            
           L  100.000000E-06 
           W  100.000000E-06 
         VTO   -3            
          KP    1            
       GAMMA    0            
         PHI     .6          
      LAMBDA    0            
          RD    5.5          
          IS   10.000000E-15 
          JS    0            
          PB     .8          
        PBSW     .8          
          CJ  101.851000E-09 
        CJSW    0            
        CGSO    0            
        CGDO    0            
        CGBO    0            
        NSUB    1.000000E+09 
         TOX    0            
          XJ    0            
       UCRIT   10.000000E+03 
      DIOMOD    1            
         VFB    0            
        LETA    0            
        WETA    0            
          U0    0            
        TEMP    0            
         VDD    5            
       XPART    0            


**** 11/28/17 10:17:29 ****** PSpice 17.2.0 (March 2016) ****** ID# 0 ********

 ** Profile: "Constant load-Tran"  [ C:\Users\Nicolai Fransen\Documents\GitHub\E7BACDriver\P-Spice\Simulering med 3f3\flyback_diagram


 ****     Ferromagnetic Core MODEL PARAMETERS


******************************************************************************




               KRM8/i/AL160_3F3                K3F3            
       LEVEL    2                               2            
        AREA     .63                                         
        PATH    3.84                                         
         GAP     .0488                                       
          MS  390.890000E+03                  390.890000E+03 
           A   29.666                          29.666        
           C     .17883                          .17883      
           K   19.204                          19.204        


**** 11/28/17 10:17:29 ****** PSpice 17.2.0 (March 2016) ****** ID# 0 ********

 ** Profile: "Constant load-Tran"  [ C:\Users\Nicolai Fransen\Documents\GitHub\E7BACDriver\P-Spice\Simulering med 3f3\flyback_diagram


 ****     Voltage Controlled Switch MODEL PARAMETERS


******************************************************************************




               X_FB_PS_U1.SSWITCH 
         RON  125            
        ROFF   10.000000E+06 
         VON    4            
        VOFF    2            


               X_FB_PS_U1.XUV.SUVLO 
         RON    1            
        ROFF    1.000000E+06 
          VT    8.4          
          VH    1            
          TD    0            

Reducing minimum delta to make the circuit converge.
Reducing minimum delta to make the circuit converge.
Reducing minimum delta to make the circuit converge.
Reducing minimum delta to make the circuit converge.
Reducing minimum delta to make the circuit converge.

ERROR(ORPSIM-15138): Convergence problem in Transient Analysis at Time =  1.441E-03.
         Time step =  819.9E-21, minimum allowable step size =  1.000E-18

  These voltages failed to converge:

    V(FB_N02226)              =   128.09mV  \   128.35mV
    V(N1356267)               =   744.34mV  \   746.63mV
    V(FB_PS_N17058)           =   -87.40mV  \   -85.05mV
    V(FB_PS_ANODE)            =     1.270V  \     1.272V
    V(FB_PS_N12024)           =     1.438V  \     1.440V
    V(FB_PS_N18140)           =   768.38mV  \   770.67mV

  These supply currents failed to converge:

    I(X_FB_PS_U1.XEA.EB1)     =   -17.53uA  \   -17.01uA
    I(V_FB_V1)                =   -15.24mA  \   -15.57mA
    I(X_FB_PS_U1.Vrout)       =    15.99mA  \    16.05mA
    I(X_FB_PS_U1.XEA.V4)      =    1.585uA  \  -165.54nA

  These devices failed to converge:
    X_FB_PS_U1.XVccZen.D1 X_FB_PS_U1.Qtim 



  Last node voltages tried were:

 NODE   VOLTAGE     NODE   VOLTAGE     NODE   VOLTAGE     NODE   VOLTAGE


(  OUT)    1.7803  (N1353995)   11.4550                  (N1356267)     .7443   

(FB_N02226)     .1281                 (FB_N14138)   11.2510                     

(FB_N14259)    -.0434                 (FB_N14338)     .1371                     

(FB_N14535)    5.0027                 (FB_N14542)    1.4415                     

(FB_N15349)   12.0000                 (FB_N19124)     .9754                     

(FB_N19132)    1.4649                 (FB_PS_GATE)     .0230                    

(FB_PS_ANODE)    1.2699               (FB_PS_DRAIN)    9.6757                   

(FB_OF_N23621)    1.7744              (FB_OF_N23692)    1.7869                  

(FB_OF_N23789)    1.8022              (FB_OF_N23809)    1.7958                  

(FB_OF_N23921)    1.8063              (FB_OF_N23941)    1.8009                  

(FB_OF_N24054)    1.8066              (FB_OF_N24074)    1.8015                  

(FB_OF_N24235)    1.3476              (FB_OF_N24253)    1.6110                  

(FB_OF_N24257)    1.7265              (FB_PS_N12010)   11.2860                  

(FB_PS_N12024)    1.4380              (FB_PS_N15331)     .0041                  

(FB_PS_N16991)   11.2010              (FB_PS_N17058)    -.0874                  

(FB_PS_N17896)   19.1410              (FB_PS_N18140)     .7684                  

(X_FB_PS_M1.4)    0.0000              (X_FB_PS_M1.5)    9.7545                  

(X_FB_PS_M1.6)    9.6661              (X_FB_PS_M1.7)     .0246                  

(X_FB_PS_M1.8)    -.0434              (X_FB_PS_M1.9)    9.6907                  

(X_FB_PS_U1.1)    2.5013              (X_FB_PS_U1.3) 55.82E-15                  

(X_FB_PS_U1.6)     .1000              (FB_IF_N129151)   10.6230                 

(X_FB_PS_M1.10)    9.6661             (X_FB_PS_M1.11)    9.6661                 

(X_FB_PS_U1.11)     .1000             (X_FB_PS_U1.12)     .1000                 

(X_FB_PS_U1.15)     .1000             (X_FB_PS_U1.16)    5.0000                 

(X_FB_PS_U1.17)     .1000             (X_FB_PS_U1.18)   10.3530                 

(X_FB_PS_U1.19)     .1000             (X_FB_PS_U1.20)     .2000                 

(X_FB_PS_U1.26)   -5.0000             (X_FB_PS_U1.27)    3.5000                 

(X_FB_PS_U1.29)     .1000             (X_FB_PS_U1.32)     .1000                 

(X_FB_PS_U1.33)     .1000             (X_FB_PS_U1.34)     .1000                 

(X_FB_PS_U1.35)    5.0000             (X_FB_PS_U1.36)     .1000                 

(X_FB_PS_U1.37)     .1000             (X_FB_PS_U1.38)     .1000                 

(X_FB_PS_U1.39)    0.0000             (X_FB_PS_U1.41)     .1000                 

(X_FB_PS_U1.43)    5.0000             (X_FB_PS_U1.44)     .4109                 

(X_FB_PS_U1.45)    2.5013             (X_FB_PS_U1.46)     .0727                 

(X_FB_PS_U1.47)   10.3730             (X_FB_PS_U1.52)     .1000                 

(X_FB_PS_U1.53)    4.9950             (X_FB_PS_U1.56)    4.9950                 

(X_FB_PS_U1.57)    5.0000             (X_FB_PS_U1.59)    4.0000                 

(X_FB_PS_U1.60)     .5000             (X_FB_PS_U1.61)     .1001                 

(X_FB_PS_U1.63)    5.0000             (X_FB_PS_U1.64)    1.5000                 

(X_FB_PS_U1.65)    0.0000             (X_FB_PS_U1.66)    2.4500                 

(X_FB_PS_U1.69)     .7800             (X_FB_PS_U1.70)     .3000                 

(X_FB_PS_U1.LEB) 1.993E-12            (X_FB_PS_U1.Tog)    5.0000                

(X_FB_PS_U1.vss)    1.5286            (X_FB_PS_U1.puls)-5.527E-12               

(X_FB_PS_U1.X1.4)     .1000           (X_FB_PS_U1.X3.4)     .1000               

(X_FB_PS_U1.X4.4)    5.0000           (X_FB_PS_U1.X6.4)     .1000               

(X_FB_PS_U1.X7.4)    0.0000           (X_FB_PS_U1.X8.4)     .1000               

(X_FB_PS_U1.CSLEB)    0.0000          (X_FB_PS_U1.ctrst)    0.0000              

(X_FB_PS_U1.X10.4)     .1000          (X_FB_PS_U1.X12.4)     .1000              

(X_FB_PS_U1.X16.4)     .1000          (X_FB_PS_U1.X17.4)     .1000              

(X_FB_PS_U1.X18.4)     .1000          (X_FB_PS_U1.X19.4)    5.0000              

(X_FB_PS_U1.X20.4)     .1000          (X_FB_PS_U1.X21.4)    5.0000              

(X_FB_PS_U1.X29.6)    5.0000          (X_FB_PS_U1.XEA.2)    9.8963              

(X_FB_PS_U1.XEA.7)     .8286          (X_FB_PS_U1.XHD.6)    5.0000              

(X_FB_PS_U1.XUV.3)   12.0000          (X_FB_PS_U1.XUV.4)   12.0000              

(X_FB_PS_U1.ctimer)    1.5286         (X_FB_PS_U1.oscout)     .1000             

(X_FB_PS_U1.rstosc)     .1000         (X_FB_PS_U1.uvlout)   10.3730             

(X_FB_PS_U1.X0DC.4)     .1000         (X_FB_PS_U1.X13.10)    5.0000             

(X_FB_PS_U1.X13.20)     .1000         (X_FB_PS_U1.X14.10)    5.0000             

(X_FB_PS_U1.X14.20)     .1000         (X_FB_PS_U1.XEA.11)    9.9054             

(X_FB_PS_U1.XEA.13)    9.3319         (X_FB_PS_U1.XEA.16)    1.4929             

(X_FB_PS_U1.XTFF.3)    5.0000         (X_FB_PS_U1.XTFF.4)    5.0000             

(X_FB_PS_U1.XTFF.7)    3.5000         (X_FB_PS_U1.XTFF.8)    3.5000             

(X_FB_PS_U1.XTFF.9)     .3000         (X_FB_PS_U1.XTog.4)    5.0000             

(X_FB_PS_U1.X18.HYS)     .5000        (X_FB_PS_U1.X29.Sin)    0.0000            

(X_FB_PS_U1.X99DC.4)     .1000        (X_FB_PS_U1.XEA.OUT)    9.9054            

(X_FB_PS_U1.XHD.Sin)    0.0000        (X_FB_PS_U1.XLEBD.3)    0.0000            

(X_FB_PS_U1.XROSC.4)     .1000        (X_FB_PS_U1.XTFF.10)    3.5000            

(X_FB_PS_U1.X29.X1.5)    5.0000       (X_FB_PS_U1.X29.X1.7)    0.0000           

(X_FB_PS_U1.X29.X2.4)    0.0000       (X_FB_PS_U1.X29.X3.3)    5.0000           

(X_FB_PS_U1.XDRIVE.2)   -4.9959       (X_FB_PS_U1.XDRIVE.3)   -4.9357           

(X_FB_PS_U1.XEA.OUT1)    9.8983       (X_FB_PS_U1.XEA.OUT2)    9.8964           

(X_FB_PS_U1.XHD.X1.5)    5.0000       (X_FB_PS_U1.XHD.X1.7)    0.0000           

(X_FB_PS_U1.XHD.X2.4)    0.0000       (X_FB_PS_U1.XHD.X3.3)    5.0000           

(X_FB_PS_U1.XRstHD.4)     .1000       (X_FB_PS_U1.XTFF.X1.5)    3.5000          

(X_FB_PS_U1.XTFF.X2.5)     .3000      (X_FB_PS_U1.XTFF.X3.5)    3.5000          

(X_FB_PS_U1.XTFF.X4.5)    3.5000      (X_FB_PS_U1.XTFF.X5.5)     .3000          

(X_FB_PS_U1.XTFF.X6.5)    3.5000      (X_FB_PS_U1.XTFF.X7.4)    5.0000          

(X_FB_PS_U1.XTFF.X8.4)    5.0000      


**** Interrupt ****
**** Param: RELTOL = 0.001
**** Param: ABSTOL = 1e-012
**** Param: VNTOL = 1e-006
**** Param: GMIN = 1e-012
**** Param: TSTOP = 0.02
**** Param: TMAX = 1e-006
**** Param: ITL1 = 150
**** Param: ITL2 = 20
**** Param: ITL4 = 100
**** Param: AutoConverge = 1
**** Param: AutoConverge.ITL1 = 1000
**** Param: AutoConverge.ITL2 = 1000
**** Param: AutoConverge.ITL4 = 1000
**** Param: AutoConverge.RELTOL = 0.05
**** Param: AutoConverge.ABSTOL = 0.001
**** Param: AutoConverge.VNTOL = 0.001
**** Param: AutoConverge.PIVTOL = 1e-010
**** Param: ADVCONV = 1
**** Param: Current_Simulation = 3
**** Param: METHOD = 0
**** Param: TRTOL = 7
**** Param: STEPGMIN = 0
**** Param: GMINSTEPS = 0
**** Param: ITL6 = 0
**** Param: NOSTEPDEP = 0
**** Param: PTRANSTEP = 0
**** Param: GMINSRC = 0
**** Param: PSEUDOTRAN = 0
**** Param: NOSTEPSRC = 0
Convergence problem in transient analysis at Time =  1.441E-03
         Time step =  819.9E-21, minimum allowable step size =  1.000E-18

  These voltages failed to converge:

    V(FB_N02226)              =   128.09mV  \   128.35mV
    V(N1356267)               =   744.34mV  \   746.63mV
    V(FB_PS_N17058)           =   -87.40mV  \   -85.05mV
    V(FB_PS_ANODE)            =     1.270V  \     1.272V
    V(FB_PS_N12024)           =     1.438V  \     1.440V
    V(FB_PS_N18140)           =   768.38mV  \   770.67mV

  These supply currents failed to converge:

    I(X_FB_PS_U1.XEA.EB1)     =   -17.53uA  \   -17.01uA
    I(V_FB_V1)                =   -15.24mA  \   -15.57mA
    I(X_FB_PS_U1.Vrout)       =    15.99mA  \    16.05mA
    I(X_FB_PS_U1.XEA.V4)      =    1.585uA  \  -165.54nA

  These devices failed to converge:
    X_FB_PS_U1.XVccZen.D1 X_FB_PS_U1.Qtim 



  Last node voltages tried were:

 NODE   VOLTAGE     NODE   VOLTAGE     NODE   VOLTAGE     NODE   VOLTAGE


(  OUT)    1.7803  (N1353995)   11.4550                  (N1356267)     .7443   

(FB_N02226)     .1281                 (FB_N14138)   11.2510                     

(FB_N14259)    -.0434                 (FB_N14338)     .1371                     

(FB_N14535)    5.0027                 (FB_N14542)    1.4415                     

(FB_N15349)   12.0000                 (FB_N19124)     .9754                     

(FB_N19132)    1.4649                 (FB_PS_GATE)     .0230                    

(FB_PS_ANODE)    1.2699               (FB_PS_DRAIN)    9.6757                   

(FB_OF_N23621)    1.7744              (FB_OF_N23692)    1.7869                  

(FB_OF_N23789)    1.8022              (FB_OF_N23809)    1.7958                  

(FB_OF_N23921)    1.8063              (FB_OF_N23941)    1.8009                  

(FB_OF_N24054)    1.8066              (FB_OF_N24074)    1.8015                  

(FB_OF_N24235)    1.3476              (FB_OF_N24253)    1.6110                  

(FB_OF_N24257)    1.7265              (FB_PS_N12010)   11.2860                  

(FB_PS_N12024)    1.4380              (FB_PS_N15331)     .0041                  

(FB_PS_N16991)   11.2010              (FB_PS_N17058)    -.0874                  

(FB_PS_N17896)   19.1410              (FB_PS_N18140)     .7684                  

(X_FB_PS_M1.4)    0.0000              (X_FB_PS_M1.5)    9.7545                  

(X_FB_PS_M1.6)    9.6661              (X_FB_PS_M1.7)     .0246                  

(X_FB_PS_M1.8)    -.0434              (X_FB_PS_M1.9)    9.6907                  

(X_FB_PS_U1.1)    2.5013              (X_FB_PS_U1.3) 55.82E-15                  

(X_FB_PS_U1.6)     .1000              (FB_IF_N129151)   10.6230                 

(X_FB_PS_M1.10)    9.6661             (X_FB_PS_M1.11)    9.6661                 

(X_FB_PS_U1.11)     .1000             (X_FB_PS_U1.12)     .1000                 

(X_FB_PS_U1.15)     .1000             (X_FB_PS_U1.16)    5.0000                 

(X_FB_PS_U1.17)     .1000             (X_FB_PS_U1.18)   10.3530                 

(X_FB_PS_U1.19)     .1000             (X_FB_PS_U1.20)     .2000                 

(X_FB_PS_U1.26)   -5.0000             (X_FB_PS_U1.27)    3.5000                 

(X_FB_PS_U1.29)     .1000             (X_FB_PS_U1.32)     .1000                 

(X_FB_PS_U1.33)     .1000             (X_FB_PS_U1.34)     .1000                 

(X_FB_PS_U1.35)    5.0000             (X_FB_PS_U1.36)     .1000                 

(X_FB_PS_U1.37)     .1000             (X_FB_PS_U1.38)     .1000                 

(X_FB_PS_U1.39)    0.0000             (X_FB_PS_U1.41)     .1000                 

(X_FB_PS_U1.43)    5.0000             (X_FB_PS_U1.44)     .4109                 

(X_FB_PS_U1.45)    2.5013             (X_FB_PS_U1.46)     .0727                 

(X_FB_PS_U1.47)   10.3730             (X_FB_PS_U1.52)     .1000                 

(X_FB_PS_U1.53)    4.9950             (X_FB_PS_U1.56)    4.9950                 

(X_FB_PS_U1.57)    5.0000             (X_FB_PS_U1.59)    4.0000                 

(X_FB_PS_U1.60)     .5000             (X_FB_PS_U1.61)     .1001                 

(X_FB_PS_U1.63)    5.0000             (X_FB_PS_U1.64)    1.5000                 

(X_FB_PS_U1.65)    0.0000             (X_FB_PS_U1.66)    2.4500                 

(X_FB_PS_U1.69)     .7800             (X_FB_PS_U1.70)     .3000                 

(X_FB_PS_U1.LEB) 1.993E-12            (X_FB_PS_U1.Tog)    5.0000                

(X_FB_PS_U1.vss)    1.5286            (X_FB_PS_U1.puls)-5.527E-12               

(X_FB_PS_U1.X1.4)     .1000           (X_FB_PS_U1.X3.4)     .1000               

(X_FB_PS_U1.X4.4)    5.0000           (X_FB_PS_U1.X6.4)     .1000               

(X_FB_PS_U1.X7.4)    0.0000           (X_FB_PS_U1.X8.4)     .1000               

(X_FB_PS_U1.CSLEB)    0.0000          (X_FB_PS_U1.ctrst)    0.0000              

(X_FB_PS_U1.X10.4)     .1000          (X_FB_PS_U1.X12.4)     .1000              

(X_FB_PS_U1.X16.4)     .1000          (X_FB_PS_U1.X17.4)     .1000              

(X_FB_PS_U1.X18.4)     .1000          (X_FB_PS_U1.X19.4)    5.0000              

(X_FB_PS_U1.X20.4)     .1000          (X_FB_PS_U1.X21.4)    5.0000              

(X_FB_PS_U1.X29.6)    5.0000          (X_FB_PS_U1.XEA.2)    9.8963              

(X_FB_PS_U1.XEA.7)     .8286          (X_FB_PS_U1.XHD.6)    5.0000              

(X_FB_PS_U1.XUV.3)   12.0000          (X_FB_PS_U1.XUV.4)   12.0000              

(X_FB_PS_U1.ctimer)    1.5286         (X_FB_PS_U1.oscout)     .1000             

(X_FB_PS_U1.rstosc)     .1000         (X_FB_PS_U1.uvlout)   10.3730             

(X_FB_PS_U1.X0DC.4)     .1000         (X_FB_PS_U1.X13.10)    5.0000             

(X_FB_PS_U1.X13.20)     .1000         (X_FB_PS_U1.X14.10)    5.0000             

(X_FB_PS_U1.X14.20)     .1000         (X_FB_PS_U1.XEA.11)    9.9054             

(X_FB_PS_U1.XEA.13)    9.3319         (X_FB_PS_U1.XEA.16)    1.4929             

(X_FB_PS_U1.XTFF.3)    5.0000         (X_FB_PS_U1.XTFF.4)    5.0000             

(X_FB_PS_U1.XTFF.7)    3.5000         (X_FB_PS_U1.XTFF.8)    3.5000             

(X_FB_PS_U1.XTFF.9)     .3000         (X_FB_PS_U1.XTog.4)    5.0000             

(X_FB_PS_U1.X18.HYS)     .5000        (X_FB_PS_U1.X29.Sin)    0.0000            

(X_FB_PS_U1.X99DC.4)     .1000        (X_FB_PS_U1.XEA.OUT)    9.9054            

(X_FB_PS_U1.XHD.Sin)    0.0000        (X_FB_PS_U1.XLEBD.3)    0.0000            

(X_FB_PS_U1.XROSC.4)     .1000        (X_FB_PS_U1.XTFF.10)    3.5000            

(X_FB_PS_U1.X29.X1.5)    5.0000       (X_FB_PS_U1.X29.X1.7)    0.0000           

(X_FB_PS_U1.X29.X2.4)    0.0000       (X_FB_PS_U1.X29.X3.3)    5.0000           

(X_FB_PS_U1.XDRIVE.2)   -4.9959       (X_FB_PS_U1.XDRIVE.3)   -4.9357           

(X_FB_PS_U1.XEA.OUT1)    9.8983       (X_FB_PS_U1.XEA.OUT2)    9.8964           

(X_FB_PS_U1.XHD.X1.5)    5.0000       (X_FB_PS_U1.XHD.X1.7)    0.0000           

(X_FB_PS_U1.XHD.X2.4)    0.0000       (X_FB_PS_U1.XHD.X3.3)    5.0000           

(X_FB_PS_U1.XRstHD.4)     .1000       (X_FB_PS_U1.XTFF.X1.5)    3.5000          

(X_FB_PS_U1.XTFF.X2.5)     .3000      (X_FB_PS_U1.XTFF.X3.5)    3.5000          

(X_FB_PS_U1.XTFF.X4.5)    3.5000      (X_FB_PS_U1.XTFF.X5.5)     .3000          

(X_FB_PS_U1.XTFF.X6.5)    3.5000      (X_FB_PS_U1.XTFF.X7.4)    5.0000          

(X_FB_PS_U1.XTFF.X8.4)    5.0000      

Resuming Simulation with the following settings
ITL4 = 354
ABSTOL = 1.41e-009

Convergence problem in transient analysis at Time =  1.791E-03
         Time step =  304.7E-21, minimum allowable step size =  1.000E-18

  These voltages failed to converge:

    V(FB_PS_N17058)           =  -332.99mV  \  -328.72mV

  These supply currents failed to converge:

    I(X_FB_PS_U1.XEA.EB1)     =   -19.79uA  \   -17.79uA
    I(V_FB_V1)                =   -14.21mA  \   -15.80mA
    I(X_FB_PS_U1.Vrout)       =    15.87mA  \    15.99mA
    I(X_FB_PS_U1.XEA.V4)      =   484.29nA  \   -1.172uA

  These devices failed to converge:
    X_FB_PS_U1.XVccZen.D1 



  Last node voltages tried were:

 NODE   VOLTAGE     NODE   VOLTAGE     NODE   VOLTAGE     NODE   VOLTAGE


(  OUT)    4.7497  (N1353995)   20.5540                  (N1356267)    2.3756   

(FB_N02226)     .3258                 (FB_N14138)   20.2010                     

(FB_N14259)    -.0278                 (FB_N14338)     .2187                     

(FB_N14535)    5.0027                 (FB_N14542)    1.5701                     

(FB_N15349)   12.0000                 (FB_N19124)    1.2174                     

(FB_N19132)    1.9022                 (FB_PS_GATE)    -.2476                    

(FB_PS_ANODE)    2.9559               (FB_PS_DRAIN)   16.3650                   

(FB_OF_N23621)    4.7868              (FB_OF_N23692)    4.8061                  

(FB_OF_N23789)    4.8327              (FB_OF_N23809)    4.8238                  

(FB_OF_N23921)    4.8406              (FB_OF_N23941)    4.8332                  

(FB_OF_N24054)    4.8415              (FB_OF_N24074)    4.8343                  

(FB_OF_N24235)    3.7776              (FB_OF_N24253)    4.3840                  

(FB_OF_N24257)    4.6432              (FB_PS_N12010)   20.2400                  

(FB_PS_N12024)    3.2140              (FB_PS_N15331)    -.0254                  

(FB_PS_N16991)   19.9110              (FB_PS_N17058)    -.3330                  

(FB_PS_N17896)   29.9960              (FB_PS_N18140)    2.4130                  

(X_FB_PS_M1.4)    0.0000              (X_FB_PS_M1.5)   16.6970                  

(X_FB_PS_M1.6)   16.6370              (X_FB_PS_M1.7)    -.2658                  

(X_FB_PS_M1.8)    -.0278              (X_FB_PS_M1.9)   16.3710                  

(X_FB_PS_U1.1)    2.5013              (X_FB_PS_U1.3) 3.885E-15                  

(X_FB_PS_U1.6)     .1000              (FB_IF_N129151)   19.7230                 

(X_FB_PS_M1.10)   16.6370             (X_FB_PS_M1.11)   16.6370                 

(X_FB_PS_U1.11)     .1000             (X_FB_PS_U1.12)     .1000                 

(X_FB_PS_U1.15)     .1000             (X_FB_PS_U1.16)    5.0000                 

(X_FB_PS_U1.17)     .1000             (X_FB_PS_U1.18)   10.3530                 

(X_FB_PS_U1.19)     .1000             (X_FB_PS_U1.20)     .2000                 

(X_FB_PS_U1.26)   -5.0000             (X_FB_PS_U1.27)    3.5000                 

(X_FB_PS_U1.29)     .1000             (X_FB_PS_U1.32)     .1000                 

(X_FB_PS_U1.33)     .1000             (X_FB_PS_U1.34)     .1000                 

(X_FB_PS_U1.35)    5.0000             (X_FB_PS_U1.36)     .1000                 

(X_FB_PS_U1.37)     .1000             (X_FB_PS_U1.38)     .1000                 

(X_FB_PS_U1.39)    0.0000             (X_FB_PS_U1.41)     .1000                 

(X_FB_PS_U1.43)    5.0000             (X_FB_PS_U1.44)     .6733                 

(X_FB_PS_U1.45)    2.5013             (X_FB_PS_U1.46)     .0727                 

(X_FB_PS_U1.47)   10.3730             (X_FB_PS_U1.52)     .1000                 

(X_FB_PS_U1.53)    4.9950             (X_FB_PS_U1.56)    4.9950                 

(X_FB_PS_U1.57)    5.0000             (X_FB_PS_U1.59)    4.0000                 

(X_FB_PS_U1.60)     .5000             (X_FB_PS_U1.61)     .1001                 

(X_FB_PS_U1.63)    5.0000             (X_FB_PS_U1.64)    1.5000                 

(X_FB_PS_U1.65)    0.0000             (X_FB_PS_U1.66)    2.4500                 

(X_FB_PS_U1.69)     .7800             (X_FB_PS_U1.70)     .3000                 

(X_FB_PS_U1.LEB) 2.500E-12            (X_FB_PS_U1.Tog)    5.0000                

(X_FB_PS_U1.vss)    1.9660            (X_FB_PS_U1.puls)-384.7E-15               

(X_FB_PS_U1.X1.4)     .1000           (X_FB_PS_U1.X3.4)     .1000               

(X_FB_PS_U1.X4.4)    5.0000           (X_FB_PS_U1.X6.4)     .1000               

(X_FB_PS_U1.X7.4)    0.0000           (X_FB_PS_U1.X8.4)     .1000               

(X_FB_PS_U1.CSLEB)    0.0000          (X_FB_PS_U1.ctrst)    0.0000              

(X_FB_PS_U1.X10.4)     .1000          (X_FB_PS_U1.X12.4)     .1000              

(X_FB_PS_U1.X16.4)     .1000          (X_FB_PS_U1.X17.4)     .1000              

(X_FB_PS_U1.X18.4)     .1000          (X_FB_PS_U1.X19.4)    5.0000              

(X_FB_PS_U1.X20.4)     .1000          (X_FB_PS_U1.X21.4)    5.0000              

(X_FB_PS_U1.X29.6)    5.0000          (X_FB_PS_U1.XEA.2)    9.8886              

(X_FB_PS_U1.XEA.7)    1.2660          (X_FB_PS_U1.XHD.6)    5.0000              

(X_FB_PS_U1.XUV.3)   12.0000          (X_FB_PS_U1.XUV.4)   12.0000              

(X_FB_PS_U1.ctimer)    1.9660         (X_FB_PS_U1.oscout)     .1000             

(X_FB_PS_U1.rstosc)     .1000         (X_FB_PS_U1.uvlout)   10.3730             

(X_FB_PS_U1.X0DC.4)     .1000         (X_FB_PS_U1.X13.10)    5.0000             

(X_FB_PS_U1.X13.20)     .1000         (X_FB_PS_U1.X14.10)    5.0000             

(X_FB_PS_U1.X14.20)     .1000         (X_FB_PS_U1.XEA.11)    9.9029             

(X_FB_PS_U1.XEA.13)    9.3242         (X_FB_PS_U1.XEA.16)    1.9302             

(X_FB_PS_U1.XTFF.3)    5.0000         (X_FB_PS_U1.XTFF.4)    5.0000             

(X_FB_PS_U1.XTFF.7)    3.5000         (X_FB_PS_U1.XTFF.8)    3.5000             

(X_FB_PS_U1.XTFF.9)     .3000         (X_FB_PS_U1.XTog.4)    5.0000             

(X_FB_PS_U1.X18.HYS)     .5000        (X_FB_PS_U1.X29.Sin)    0.0000            

(X_FB_PS_U1.X99DC.4)     .1000        (X_FB_PS_U1.XEA.OUT)    9.9029            

(X_FB_PS_U1.XHD.Sin)    0.0000        (X_FB_PS_U1.XLEBD.3)    0.0000            

(X_FB_PS_U1.XROSC.4)     .1000        (X_FB_PS_U1.XTFF.10)    3.5000            

(X_FB_PS_U1.X29.X1.5)    5.0000       (X_FB_PS_U1.X29.X1.7)    0.0000           

(X_FB_PS_U1.X29.X2.4)    0.0000       (X_FB_PS_U1.X29.X3.3)    5.0000           

(X_FB_PS_U1.XDRIVE.2)   -5.0254       (X_FB_PS_U1.XDRIVE.3)   -4.9808           

(X_FB_PS_U1.XEA.OUT1)    9.8912       (X_FB_PS_U1.XEA.OUT2)    9.8888           

(X_FB_PS_U1.XHD.X1.5)    5.0000       (X_FB_PS_U1.XHD.X1.7)    0.0000           

(X_FB_PS_U1.XHD.X2.4)    0.0000       (X_FB_PS_U1.XHD.X3.3)    5.0000           

(X_FB_PS_U1.XRstHD.4)     .1000       (X_FB_PS_U1.XTFF.X1.5)    3.5000          

(X_FB_PS_U1.XTFF.X2.5)     .3000      (X_FB_PS_U1.XTFF.X3.5)    3.5000          

(X_FB_PS_U1.XTFF.X4.5)    3.5000      (X_FB_PS_U1.XTFF.X5.5)     .3000          

(X_FB_PS_U1.XTFF.X6.5)    3.5000      (X_FB_PS_U1.XTFF.X7.4)    5.0000          

(X_FB_PS_U1.XTFF.X8.4)    5.0000      

Resuming Simulation with the following settings
ITL4 = 354
ABSTOL = 2e-006



          JOB CONCLUDED
 AutoConverge Simulator Options
 ITL1 = 150
 ITL2 = 20
 ITL4 = 100
 RELTOL = 0.001
 ABSTOL = 1.99526e-006
 VNTOL = 1e-006
 PIVTOL = 1e-013

**** 11/28/17 10:17:29 ****** PSpice 17.2.0 (March 2016) ****** ID# 0 ********

 ** Profile: "Constant load-Tran"  [ C:\Users\Nicolai Fransen\Documents\GitHub\E7BACDriver\P-Spice\Simulering med 3f3\flyback_diagram


 ****     JOB STATISTICS SUMMARY


******************************************************************************



  Total job time (using Solver 1)   =      526.75
