
**** 11/06/17 21:33:09 ****** PSpice 17.2.0 (March 2016) ****** ID# 0 ********

 ** Profile: "Gain-Phase-AC"  [ C:\Users\Nicolai Fransen\Documents\GitHub\E7BACDriver\P-Spice\Simulering med 3f3\Flyback_diagram TEST


 ****     CIRCUIT DESCRIPTION


******************************************************************************




** Creating circuit file "AC.cir" 
** WARNING: THIS AUTOMATICALLY GENERATED FILE MAY BE OVERWRITTEN BY SUBSEQUENT SIMULATIONS

*Libraries: 
* Profile Libraries :
* Local Libraries :
.LIB "C:/Cadence/Library/Smps/PSpice/Ferrite.lib" 
* From [PSPICE NETLIST] section of C:\Cadence\SPB_Data\cdssetup\OrCAD_PSpice\17.2.0\PSpice.ini file:
.lib "nom.lib" 
.lib "C:\Cadence\Company\OrCAD_PSpice\Models\pspice_demokit.lib" 
.lib "C:\Cadence\Company\OrCAD_PSpice\Models\sample_models.lib" 

*Analysis directives: 
.AC DEC 1000 10 100k
.STEP PARAM Pscale LIST 0.1 1 
.OPTIONS ADVCONV
.OPTIONS CONVAID
.OPTIONS METHOD= Default
.PROBE64 V(*) I(*) W(*) D(*) NOISE(*) 
.INC "..\Gain-Phase.net" 



**** INCLUDING Gain-Phase.net ****
* source FLYBACK_DIAGRAM TEST
V_Vmb1         N1354120 0 26V
I_Iinj         N1354130 N8192521 DC 0Adc AC 1mAac 
R_Flyback_RFB1         Flyback_N02226 N8192521  18.7k TC=0,0 
C_Flyback_Cref         0 Flyback_N14535  1u  TC=0,0 
C_Flyback_CT1         0 Flyback_N14338  100p  TC=0,0 
Kn_Flyback_FLY_K1         L_Flyback_FLY_Lp L_Flyback_FLY_Ls     1
+  KRM8/i/AL160_3F3
R_Flyback_FLY_Rg         Flyback_FLY_N12134 Flyback_FLY_N13092  50R TC=0,0 
R_Flyback_FLY_Rlp         Flyback_FLY_N12010 Flyback_N14138  {Rlp/3} TC=0,0 
R_Flyback_FLY_Rls         Flyback_FLY_N12030 Flyback_FLY_N12020  {Rls/3} TC=0,0
+  
L_Flyback_FLY_Lp         Flyback_FLY_N12010 Flyback_FLY_N12076  {N}  
X_Flyback_FLY_M1         Flyback_FLY_N12076 Flyback_FLY_N12134 Flyback_N14259
+  IRFB31N20D
X_Flyback_FLY_D1         Flyback_FLY_N12030 N1354130 awb1n5811 PARAMS:         
+        
L_Flyback_FLY_Ls         0 Flyback_FLY_N12020  {N}  
G_Flyback_FLY_UCC_UVR_G2         Flyback_N15349 0 Value = 
+ {if(V(Flyback_N15349)<2, V(Flyback_N15349)/(2/_Flyback_FLY_UCC_UVR_Idd0),
+  _Flyback_FLY_UCC_UVR_Idd0)}
E_Flyback_FLY_UCC_UVR_ABM1         Flyback_FLY_UCC_UVR_N235159 0 VALUE {
+  if(V(Flyback_N15349)>_Flyback_FLY_UCC_UVR_Vth,1,
+  if(V(Flyback_N15349)<_Flyback_FLY_UCC_UVR_Vtl,0,
+  if(STATE(1,V(Flyback_FLY_UCC_UVR_N235159))>0,1,0)))    }
X_Flyback_FLY_UCC_UVR_D1    Flyback_FLY_UCC_UVR_N235221 Flyback_N14535
+  UVLO_Vref_1845_Flyback_FLY_UCC_UVR_D1 
X_Flyback_FLY_UCC_UVR_F1    Flyback_FLY_UCC_UVR_N235173
+  Flyback_FLY_UCC_UVR_N235221 Flyback_N15349 0
+  UVLO_Vref_1845_Flyback_FLY_UCC_UVR_F1 
G_Flyback_FLY_UCC_UVR_G3         Flyback_N15349 0 Flyback_FLY_UCC_UVR_N235159 0
+  {_Flyback_FLY_UCC_UVR_Idd-_Flyback_FLY_UCC_UVR_Idd0}
X_Flyback_FLY_UCC_UVR_S1    Flyback_FLY_UCC_UVR_N235173 0
+  Flyback_FLY_UCC_UVR_N235173 0 UVLO_Vref_1845_Flyback_FLY_UCC_UVR_S1 
G_Flyback_FLY_UCC_UVR_G1         Flyback_FLY_UCC_UVR_N235173 0
+  Flyback_FLY_UCC_UVR_N235159 0 -100mA
E_Flyback_FLY_UCC_ABM1         Flyback_FLY_UCC_N1359716 0 VALUE {
+  if(V(Flyback_N14338)>V(Flyback_FLY_UCC_N1359552),3,0)    }
E_Flyback_FLY_UCC_Ao         Flyback_FLY_UCC_N1359348 0 VALUE {
+  if(V(Flyback_FLY_UCC_N1359394)>0.8V,V(Flyback_N15349),0)    }
G_Flyback_FLY_UCC_Go         Flyback_N15349 0 Value = 
+ {if(I(E_Flyback_FLY_UCC_Ao)>0,I(E_Flyback_FLY_UCC_Ao),0)}
X_Flyback_FLY_UCC_U3         0 0 Flyback_FLY_UCC_N1359656
+  Flyback_FLY_UCC_N1359206 M_UN0001 Flyback_FLY_UCC_N1359408 DFFRSH
X_Flyback_FLY_UCC_U4         Flyback_FLY_UCC_N1359716 Flyback_FLY_UCC_N1359656
+  DELAY PARAMS:
+ DELAY=150ns TOL=10 IO_LEVEL=0 MNTYMXDLY=0
X_Flyback_FLY_UCC_U5         Flyback_FLY_UCC_N1359366 Flyback_FLY_UCC_N1359206
+  BUF
E_Flyback_FLY_UCC_ABM2         Flyback_N14542 0 VALUE {
+  if(V(Flyback_N14535)>3V,V(Flyback_FLY_UCC_N1359568),0)    }
X_Flyback_FLY_UCC_U2         Flyback_FLY_UCC_N1359214 Flyback_FLY_UCC_N1359206
+  Flyback_FLY_UCC_N1359408 Flyback_FLY_UCC_N1359394 NOR3
X_Flyback_FLY_UCC_EA_Dcl    Flyback_N12578 Flyback_FLY_UCC_EA_N410331
+  Error_Amplifier_1845_Flyback_FLY_UCC_EA_Dcl 
E_Flyback_FLY_UCC_EA_E1         Flyback_FLY_UCC_EA_N410325 0
+  Flyback_FLY_UCC_EA_N410319 Flyback_N02226 1000
E_Flyback_FLY_UCC_EA_GAIN1         Flyback_FLY_UCC_EA_N410319 0 VALUE {0.5 *
+  V(Flyback_N14535)}
V_Flyback_FLY_UCC_EA_Vos         Flyback_FLY_UCC_EA_N410335 Flyback_N12578 
+ {-0.6*2}
E_Flyback_FLY_UCC_EA_LIMIT1         Flyback_FLY_UCC_EA_N410331 0 VALUE 
+ {LIMIT(V(Flyback_FLY_UCC_EA_N410325),0.7,6)}
I_Flyback_FLY_UCC_EA_Icomp         Flyback_FLY_UCC_EA_N410331 Flyback_N12578 DC
+  0.8mA  
E_Flyback_FLY_UCC_EA_GAIN2         Flyback_FLY_UCC_EA_N410341 0 VALUE {1/3 *
+  V(Flyback_FLY_UCC_EA_N410335)}
E_Flyback_FLY_UCC_EA_LIMIT2         Flyback_FLY_UCC_N1359552 0 VALUE 
+ {LIMIT(V(Flyback_FLY_UCC_EA_N410341),0,1)}
X_Flyback_FLY_UCC_U1         Flyback_FLY_UCC_N1359166 Flyback_FLY_UCC_N1359206
+  Flyback_FLY_UCC_N1359250 M_UN0002 Flyback_FLY_UCC_N1359214 TFFR
R_Flyback_FLY_UCC_Ro         Flyback_FLY_UCC_N1359348 Flyback_FLY_N13092  
+ {1.5V/200mA} TC=0,0 
V_Flyback_FLY_UCC_Vramp         Flyback_FLY_UCC_N1359568 0  
+PULSE {_Flyback_FLY_UCC_RampValley} {_Flyback_FLY_UCC_RampPeak} 337ns 
+ {10us-337ns-1ns} 337ns 1ns 10us
E_Flyback_FLY_UCC_U6A          Flyback_FLY_UCC_N1359250 0 VALUE 
+ {IF((V(Flyback_N14535) >= 4.8V),3.5, 0.4)}
V_Flyback_FLY_UCC_Vclk         Flyback_FLY_UCC_N1359366 0  
+PULSE 0V 3V 0 1ns 1ns 337ns 10us
X_Flyback_FLY_UCC_R1         Flyback_FLY_UCC_N1359166 PULLUP_1k PARAMS:
+ IO_LEVEL=0 MNTYMXDLY=0
R_Flyback_R6         Flyback_N02226 Flyback_N12578  10k TC=0,0 
R_Flyback_Rcs         0 Flyback_N14259  200m TC=0,0 
C_Flyback_CT         0 Flyback_N14542  300p  TC=0,0 
R_Flyback_RT         Flyback_N14542 Flyback_N14535  50k TC=0,0 
R_Flyback_RFB3         N8192521 N1354130  51.1R TC=0,0 
C_Flyback_Cout         0 N1354130  {56u*4}  TC=0,0 
C_Flyback_IF_Cin1         0 Flyback_N14138  10u  TC=0,0 
C_Flyback_IF_Cin2         0 Flyback_IF_N129151  40u  TC=0,0 
L_Flyback_IF_Lin         N1354120 Flyback_N14138  3u  
R_Flyback_IF_Rin         Flyback_IF_N129151 Flyback_N14138  800m TC=0,0 
R_Flyback_RFB2         0 Flyback_N02226  2.55k TC=0,0 
C_Flyback_Cvcc         0 Flyback_N15349  1u  TC=0,0 
R_Flyback_Rcs1         Flyback_N14259 Flyback_N14338  3k TC=0,0 
V_Flyback_V1         Flyback_N15349 0 12V
G_Gload         N1354130 0 Value = {Vout/Rload*Pscale}
.PARAM  _flyback_fly_ucc_uvr_vref=5v pscale=1 iout=2.5a n=19
+  _flyback_fly_ucc_uvr_idd0=300ua _flyback_fly_ucc_rampvalley=1.5v rlp=160m
+  vout=21v _flyback_fly_ucc_uvr_idd=11ma rls=160m _flyback_fly_ucc_ramppeak=3.2v
+  rload={vout/iout} _flyback_fly_ucc_uvr_vtl=7.9v _flyback_fly_ucc_uvr_vth=8.5v

.subckt UVLO_Vref_1845_Flyback_FLY_UCC_UVR_D1 1 2  
S_Flyback_FLY_UCC_UVR_D1         1 2 1 2 _Flyback_FLY_UCC_UVR_D1
RS_Flyback_FLY_UCC_UVR_D1         1 2 1G
.MODEL         _Flyback_FLY_UCC_UVR_D1 VSWITCH Roff=1G Ron=1n Voff=0 Von=1m
.ends UVLO_Vref_1845_Flyback_FLY_UCC_UVR_D1

.subckt UVLO_Vref_1845_Flyback_FLY_UCC_UVR_F1 1 2 3 4  
F_Flyback_FLY_UCC_UVR_F1         3 4 VF_Flyback_FLY_UCC_UVR_F1 1
VF_Flyback_FLY_UCC_UVR_F1         1 2 0V
.ends UVLO_Vref_1845_Flyback_FLY_UCC_UVR_F1

.subckt UVLO_Vref_1845_Flyback_FLY_UCC_UVR_S1 1 2 3 4  
S_Flyback_FLY_UCC_UVR_S1         3 4 1 2 _Flyback_FLY_UCC_UVR_S1
RS_Flyback_FLY_UCC_UVR_S1         1 2 1G
.MODEL         _Flyback_FLY_UCC_UVR_S1 VSWITCH Roff=1e6 Ron=1.0 Voff=
+ {_Flyback_FLY_UCC_UVR_Vref} Von={_Flyback_FLY_UCC_UVR_Vref+10mV}
.ends UVLO_Vref_1845_Flyback_FLY_UCC_UVR_S1

.subckt Error_Amplifier_1845_Flyback_FLY_UCC_EA_Dcl 1 2  
S_Flyback_FLY_UCC_EA_Dcl         1 2 1 2 _Flyback_FLY_UCC_EA_Dcl
RS_Flyback_FLY_UCC_EA_Dcl         1 2 1G
.MODEL         _Flyback_FLY_UCC_EA_Dcl VSWITCH Roff=1G Ron=1n Voff=0 Von=1m
.ends Error_Amplifier_1845_Flyback_FLY_UCC_EA_Dcl

**** RESUMING AC.cir ****
.END


**** Generated AtoD and DtoA Interfaces ****

*
* Analog/Digital interface for node 0
*
* Moving X_Flyback_FLY_UCC_U3.U2:D1 from analog node 0 to new digital node 0$AtoD
X$0_AtoD1
+ 0
+ 0$AtoD
+ $G_DPWR
+ $G_DGND
+ AtoDdefault
+       PARAMS: CAPACITANCE=   0     
* Moving X_Flyback_FLY_UCC_U3.U2:CLK from analog node 0 to new digital node 0$AtoD2
X$0_AtoD2
+ 0
+ 0$AtoD2
+ $G_DPWR
+ $G_DGND
+ AtoDdefault
+       PARAMS: CAPACITANCE=   0     
*
* Analog/Digital interface for node Flyback_FLY_UCC_N1359716
*
* Moving X_Flyback_FLY_UCC_U4.U1:IN1 from analog node Flyback_FLY_UCC_N1359716 to new digital node Flyback_FLY_UCC_N1359716$AtoD
X$Flyback_FLY_UCC_N1359716_AtoD1
+ Flyback_FLY_UCC_N1359716
+ Flyback_FLY_UCC_N1359716$AtoD
+ $G_DPWR
+ $G_DGND
+ AtoD_STD
+       PARAMS: CAPACITANCE=   0     
*
* Analog/Digital interface for node Flyback_FLY_UCC_N1359394
*
* Moving X_Flyback_FLY_UCC_U2.U1:OUT1 from analog node Flyback_FLY_UCC_N1359394 to new digital node Flyback_FLY_UCC_N1359394$DtoA
X$Flyback_FLY_UCC_N1359394_DtoA1
+ Flyback_FLY_UCC_N1359394$DtoA
+ Flyback_FLY_UCC_N1359394
+ $G_DPWR
+ $G_DGND
+ DtoAdefault
+       PARAMS: DRVH=  50     DRVL=  50     CAPACITANCE=   0     
*
* Analog/Digital interface for node Flyback_FLY_UCC_N1359250
*
* Moving X_Flyback_FLY_UCC_U1.U1:CLRBAR from analog node Flyback_FLY_UCC_N1359250 to new digital node Flyback_FLY_UCC_N1359250$AtoD
X$Flyback_FLY_UCC_N1359250_AtoD1
+ Flyback_FLY_UCC_N1359250
+ Flyback_FLY_UCC_N1359250$AtoD
+ $G_DPWR
+ $G_DGND
+ AtoDdefault
+       PARAMS: CAPACITANCE=   0     
*
* Analog/Digital interface for node Flyback_FLY_UCC_N1359366
*
* Moving X_Flyback_FLY_UCC_U5.U1:IN1 from analog node Flyback_FLY_UCC_N1359366 to new digital node Flyback_FLY_UCC_N1359366$AtoD
X$Flyback_FLY_UCC_N1359366_AtoD1
+ Flyback_FLY_UCC_N1359366
+ Flyback_FLY_UCC_N1359366$AtoD
+ $G_DPWR
+ $G_DGND
+ AtoDdefault
+       PARAMS: CAPACITANCE=   0     
*
* Analog/Digital interface power supply subcircuits
*
X$DIGIFPWR 0 DIGIFPWR


**** 11/06/17 21:33:09 ****** PSpice 17.2.0 (March 2016) ****** ID# 0 ********

 ** Profile: "Gain-Phase-AC"  [ C:\Users\Nicolai Fransen\Documents\GitHub\E7BACDriver\P-Spice\Simulering med 3f3\Flyback_diagram TEST


 ****     Diode MODEL PARAMETERS


******************************************************************************




               X_Flyback_FLY_M1.MD 
          IS  236.535000E-12 
           N    1.20814      
          BV  200            
         IBV  250.000000E-06 
          RS    2.849690E-03 
          TT   19.415700E-06 
         CJO    3.185100E-09 
          VJ     .734429     
           M     .622172     
          FC     .1          
          EG    1            
         XTI    4            


               X_Flyback_FLY_M1.MD1 
          IS    0            
           N   50            
         CJO    1.823060E-09 
          VJ     .680377     
           M     .808769     
          FC   10.000000E-09 


               X_Flyback_FLY_M1.MD2 
          IS  100.000000E-12 
           N     .4          
          RS    3.000000E-06 


               X_Flyback_FLY_M1.MD3 
          IS  100.000000E-12 
           N     .4          


               X_Flyback_FLY_D1.model22        D74CLMP         D74             
          IS  244.270000E-09                    1.000000E-15  100.000000E-18 
           N    1.887                                                        
          BV  225                                                            
         IBV    1                                                            
          RS    6.500000E-03                    2              25            
          TT   75.000000E-09                                                 
         CJO  211.000000E-12                    2.000000E-12    2.000000E-12 
          VJ    2.5                                                          
          EG    1.11                                                         


**** 11/06/17 21:33:09 ****** PSpice 17.2.0 (March 2016) ****** ID# 0 ********

 ** Profile: "Gain-Phase-AC"  [ C:\Users\Nicolai Fransen\Documents\GitHub\E7BACDriver\P-Spice\Simulering med 3f3\Flyback_diagram TEST


 ****     BJT MODEL PARAMETERS


******************************************************************************




               Q74             
               NPN             
       LEVEL    1            
          IS  100.000000E-18 
          BF   49            
          NF    1            
         ISE  100.000000E-18 
          BR     .03         
          NR    1            
         ISC  400.000000E-18 
         ISS    0            
          RB   50            
          RE    0            
          RC   20            
         CJE    1.000000E-12 
         VJE     .9          
         MJE     .5          
         CJC  500.000000E-15 
         VJC     .8          
         MJC     .33         
        XCJC    1            
         CJS    3.000000E-12 
         VJS     .7          
         MJS     .33         
          TF  200.000000E-12 
          TR   10.000000E-09 
          KF    0            
          AF    1            
          CN    2.42         
           D     .87         


**** 11/06/17 21:33:09 ****** PSpice 17.2.0 (March 2016) ****** ID# 0 ********

 ** Profile: "Gain-Phase-AC"  [ C:\Users\Nicolai Fransen\Documents\GitHub\E7BACDriver\P-Spice\Simulering med 3f3\Flyback_diagram TEST


 ****     MOSFET MODEL PARAMETERS


******************************************************************************




               X_Flyback_FLY_M1.MM 
               NMOS            
       LEVEL    1            
           L  100.000000E-06 
           W  100.000000E-06 
         VTO    5.2964       
          KP    5.32061      
       GAMMA    0            
         PHI     .6          
      LAMBDA     .02477      
          IS    0            
          JS    0            
          PB     .8          
        PBSW     .8          
          CJ    0            
        CJSW    0            
        CGSO   23.969800E-06 
        CGDO   10.369600E-12 
        CGBO    0            
         TOX    0            
          XJ    0            
       UCRIT   10.000000E+03 
      DIOMOD    1            
         VFB    0            
        LETA    0            
        WETA    0            
          U0    0            
        TEMP    0            
         VDD    5            
       XPART    0            


**** 11/06/17 21:33:09 ****** PSpice 17.2.0 (March 2016) ****** ID# 0 ********

 ** Profile: "Gain-Phase-AC"  [ C:\Users\Nicolai Fransen\Documents\GitHub\E7BACDriver\P-Spice\Simulering med 3f3\Flyback_diagram TEST


 ****     Ferromagnetic Core MODEL PARAMETERS


******************************************************************************




               KRM8/i/AL160_3F3                K3F3            
       LEVEL    2                               2            
        AREA     .63                                         
        PATH    3.84                                         
         GAP     .0488                                       
          MS  390.890000E+03                  390.890000E+03 
           A   29.666                          29.666        
           C     .17883                          .17883      
           K   19.204                          19.204        


**** 11/06/17 21:33:09 ****** PSpice 17.2.0 (March 2016) ****** ID# 0 ********

 ** Profile: "Gain-Phase-AC"  [ C:\Users\Nicolai Fransen\Documents\GitHub\E7BACDriver\P-Spice\Simulering med 3f3\Flyback_diagram TEST


 ****     Voltage Controlled Switch MODEL PARAMETERS


******************************************************************************




               X_Flyback_FLY_UCC_UVR_D1._Flyback_FLY_UCC_UVR_D1 
         RON    1.000000E-09 
        ROFF    1.000000E+09 
         VON    1.000000E-03 
        VOFF    0            


               X_Flyback_FLY_UCC_UVR_S1._Flyback_FLY_UCC_UVR_S1 
         RON    1            
        ROFF    1.000000E+06 
         VON    5.01         
        VOFF    5            


               X_Flyback_FLY_UCC_EA_Dcl._Flyback_FLY_UCC_EA_Dcl 
         RON    1.000000E-09 
        ROFF    1.000000E+09 
         VON    1.000000E-03 
        VOFF    0            


**** 11/06/17 21:33:09 ****** PSpice 17.2.0 (March 2016) ****** ID# 0 ********

 ** Profile: "Gain-Phase-AC"  [ C:\Users\Nicolai Fransen\Documents\GitHub\E7BACDriver\P-Spice\Simulering med 3f3\Flyback_diagram TEST


 ****     Digital Input MODEL PARAMETERS


******************************************************************************




               DIN74           
      S0NAME 0               
       S0TSW    3.500000E-09 
       S0RLO    7.13         
       S0RHI  389            
      S1NAME 1               
       S1TSW    5.500000E-09 
       S1RLO  467            
       S1RHI  200            
      S2NAME X               
       S2TSW    3.500000E-09 
       S2RLO   42.9          
       S2RHI  116            
      S3NAME R               
       S3TSW    3.500000E-09 
       S3RLO   42.9          
       S3RHI  116            
      S4NAME F               
       S4TSW    3.500000E-09 
       S4RLO   42.9          
       S4RHI  116            
      S5NAME Z               
       S5TSW    3.500000E-09 
       S5RLO  200.000000E+03 
       S5RHI  200.000000E+03 


**** 11/06/17 21:33:09 ****** PSpice 17.2.0 (March 2016) ****** ID# 0 ********

 ** Profile: "Gain-Phase-AC"  [ C:\Users\Nicolai Fransen\Documents\GitHub\E7BACDriver\P-Spice\Simulering med 3f3\Flyback_diagram TEST


 ****     Digital Output MODEL PARAMETERS


******************************************************************************




               DO74            
    TIMESTEP  100.000000E-12 
      S0NAME X               
       S0VHI    2            
       S0VLO     .8          
      S1NAME 0               
       S1VHI     .8          
       S1VLO   -1.5          
      S2NAME R               
       S2VHI    1.4          
       S2VLO     .8          
      S3NAME R               
       S3VHI    2            
       S3VLO    1.3          
      S4NAME X               
       S4VHI    2            
       S4VLO     .8          
      S5NAME 1               
       S5VHI    7            
       S5VLO    2            
      S6NAME F               
       S6VHI    2            
       S6VLO    1.3          
      S7NAME F               
       S7VHI    1.4          
       S7VLO     .8          


**** 11/06/17 21:33:09 ****** PSpice 17.2.0 (March 2016) ****** ID# 0 ********

 ** Profile: "Gain-Phase-AC"  [ C:\Users\Nicolai Fransen\Documents\GitHub\E7BACDriver\P-Spice\Simulering med 3f3\Flyback_diagram TEST


 ****     Digital Gate MODEL PARAMETERS


******************************************************************************




               D_PLD_GATE      
      TPLHMN    0            
      TPLHTY    0            
      TPLHMX    0            
      TPHLMN    0            
      TPHLTY    0            
      TPHLMX    0            


**** 11/06/17 21:33:09 ****** PSpice 17.2.0 (March 2016) ****** ID# 0 ********

 ** Profile: "Gain-Phase-AC"  [ C:\Users\Nicolai Fransen\Documents\GitHub\E7BACDriver\P-Spice\Simulering med 3f3\Flyback_diagram TEST


 ****     Digital Edge Triggered FF MODEL PARAMETERS


******************************************************************************




               D_PLD_EFF       
  TPCLKQLHMN    0            
  TPCLKQLHTY    0            
  TPCLKQLHMX    0            
  TPCLKQHLMN    0            
  TPCLKQHLTY    0            
  TPCLKQHLMX    0            
   TPPCQLHMN    0            
   TPPCQLHTY    0            
   TPPCQLHMX    0            
   TPPCQHLMN    0            
   TPPCQHLTY    0            
   TPPCQHLMX    0            
    TWCLKLMN    0            
    TWCLKLTY    0            
    TWCLKLMX    0            
    TWCLKHMN    0            
    TWCLKHTY    0            
    TWCLKHMX    0            
     TWPCLMN    0            
     TWPCLTY    0            
     TWPCLMX    0            
   TSUDCLKMN    0            
   TSUDCLKTY    0            
   TSUDCLKMX    0            
 TSUPCCLKHMN    0            
 TSUPCCLKHTY    0            
 TSUPCCLKHMX    0            
    THDCLKMN    0            
    THDCLKTY    0            
    THDCLKMX    0            
  TSUCECLKMN    0            
  TSUCECLKTY    0            
  TSUCECLKMX    0            
   THCECLKMN    0            
   THCECLKTY    0            
   THCECLKMX    0            


**** 11/06/17 21:33:09 ****** PSpice 17.2.0 (March 2016) ****** ID# 0 ********

 ** Profile: "Gain-Phase-AC"  [ C:\Users\Nicolai Fransen\Documents\GitHub\E7BACDriver\P-Spice\Simulering med 3f3\Flyback_diagram TEST


 ****     Digital Delay Line MODEL PARAMETERS


******************************************************************************




               X_Flyback_FLY_UCC_U4.DLYMODEL 
       DLYMN  135.000000E-09 
       DLYTY  150.000000E-09 
       DLYMX  165.000000E-09 


**** 11/06/17 21:33:09 ****** PSpice 17.2.0 (March 2016) ****** ID# 0 ********

 ** Profile: "Gain-Phase-AC"  [ C:\Users\Nicolai Fransen\Documents\GitHub\E7BACDriver\P-Spice\Simulering med 3f3\Flyback_diagram TEST


 ****     Digital IO  MODEL PARAMETERS


******************************************************************************




               IO_PLD          IO_STD          IO_PULLUP_1k    IO_DFT          
        DRVL                  104               1.000000E+06                 
        DRVH                   96.4             1.000000E+03                 
       AtoD1                 AtoD_STD                        AtoD_STD        
       AtoD2                 AtoD_STD_NX                     AtoD_STD_NX     
       AtoD3                 AtoD_STD                        AtoD_STD        
       AtoD4                 AtoD_STD_NX                     AtoD_STD_NX     
       DtoA1                 DtoA_STD        PULLUP_DTOA     DtoA_STD        
       DtoA2                 DtoA_STD                        DtoA_STD        
       DtoA3                 DtoA_STD                        DtoA_STD        
       DtoA4                 DtoA_STD                        DtoA_STD        
      TSWHL1                    1.511000E-09                                 
      TSWHL2                    1.487000E-09                                 
      TSWHL3                    1.511000E-09                                 
      TSWHL4                    1.487000E-09                                 
      TSWLH1                    3.517000E-09                                 
      TSWLH2                    3.564000E-09                                 
      TSWLH3                    3.517000E-09                                 
      TSWLH4                    3.564000E-09                                 
       TPWRT  100.000000E+03  100.000000E+03  100.000000E+03  100.000000E+03 


**** 11/06/17 21:33:09 ****** PSpice 17.2.0 (March 2016) ****** ID# 0 ********

 ** Profile: "Gain-Phase-AC"  [ C:\Users\Nicolai Fransen\Documents\GitHub\E7BACDriver\P-Spice\Simulering med 3f3\Flyback_diagram TEST


 ****     SMALL SIGNAL BIAS SOLUTION       TEMPERATURE =   27.000 DEG C

 ****     CURRENT STEP                     PARAM PSCALE =     .1   


******************************************************************************



 NODE   VOLTAGE     NODE   VOLTAGE     NODE   VOLTAGE     NODE   VOLTAGE


($G_DGND)    0.0000                   ($G_DPWR)    5.0000                       

(N1354120)   26.0000                  (N1354130)    -.6903                      

(N8192521)    -.6856                  (Flyback_N02226)    1.0325                

(Flyback_N12578)    6.0005            (Flyback_N14138)   26.0000                

(Flyback_N14259) 5.200E-06            (Flyback_N14338) 5.200E-06                

(Flyback_N14535)    5.0060            (Flyback_N14542)    0.0000                

(Flyback_N15349)   12.0000            (Flyback_FLY_N12010)   26.0000            

(Flyback_FLY_N12020)    0.0000        (Flyback_FLY_N12030)    -.0133            

(Flyback_FLY_N12076)   26.0000        (Flyback_FLY_N12134) 4.485E-09            

(Flyback_FLY_N13092) 585.0E-12        (Flyback_IF_N129151)   26.0000            

(X_Flyback_FLY_M1.4)    0.0000        (X_Flyback_FLY_M1.5)   26.0000            

(X_Flyback_FLY_M1.6)   26.0000        (X_Flyback_FLY_M1.7) 4.765E-09            

(X_Flyback_FLY_M1.8) 5.200E-06        (X_Flyback_FLY_M1.9)   26.0000            

(X_Flyback_FLY_M1.10)   26.0000       (X_Flyback_FLY_M1.11)   26.0000           

(Flyback_FLY_UCC_N1359250)    3.5000  (Flyback_FLY_UCC_N1359348)    0.0000      

(Flyback_FLY_UCC_N1359366)    0.0000  (Flyback_FLY_UCC_N1359394)     .0900      

(Flyback_FLY_UCC_N1359552)    1.0000  (Flyback_FLY_UCC_N1359568)    0.0000      

(Flyback_FLY_UCC_N1359716)    0.0000  (Flyback_FLY_UCC_EA_N410319)    2.5030    

(Flyback_FLY_UCC_EA_N410325) 1470.5000                                          

(Flyback_FLY_UCC_EA_N410331)    6.0000                                          

(Flyback_FLY_UCC_EA_N410335)    4.8005                                          

(Flyback_FLY_UCC_EA_N410341)    1.6002                                          

(Flyback_FLY_UCC_UVR_N235159)    1.0000                                         

(Flyback_FLY_UCC_UVR_N235173)    5.0065                                         

(Flyback_FLY_UCC_UVR_N235221)    5.0065                                         

(X$Flyback_FLY_UCC_N1359716_AtoD1.1)     .0915                                  

(X$Flyback_FLY_UCC_N1359716_AtoD1.2)     .0457                                  

(X$Flyback_FLY_UCC_N1359716_AtoD1.3)     .8277           



 DGTL NODE : STATE  DGTL NODE : STATE  DGTL NODE : STATE  DGTL NODE : STATE


(Flyback_FLY_UCC_N1359250$AtoD) : 1   (X_Flyback_FLY_UCC_U3.RBAR) : 1           

(Flyback_FLY_UCC_N1359206) : 0        (   $D_HI) : 1                            

(Flyback_FLY_UCC_N1359656) : 0        (X_Flyback_FLY_UCC_U3.SBAR) : 1           

(Flyback_FLY_UCC_N1359408) : 1        (M_UN0001) : 0                            

(Flyback_FLY_UCC_N1359366$AtoD) : 0   (Flyback_FLY_UCC_N1359394$DtoA) : 0       

(  0$AtoD) : 0     (Flyback_FLY_UCC_N1359166) : 1        (M_UN0002) : 0         

(Flyback_FLY_UCC_N1359214) : 1        (Flyback_FLY_UCC_N1359716$AtoD) : 0       

( 0$AtoD2) : 0     




    VOLTAGE SOURCE CURRENTS
    NAME         CURRENT

    V_Vmb1      -2.600E-05
    V_Flyback_FLY_UCC_EA_Vos   0.000E+00
    V_Flyback_FLY_UCC_Vramp   0.000E+00
    V_Flyback_FLY_UCC_Vclk   0.000E+00
    V_Flyback_V1  -1.110E-02
    X_Flyback_FLY_M1.VFI2   2.600E-11
    X_Flyback_FLY_M1.VFI1   0.000E+00
    X_Flyback_FLY_UCC_UVR_F1.VF_Flyback_FLY_UCC_UVR_F1   1.001E-04
    X$DIGIFPWR.VDPWR  -1.367E-02
    X$DIGIFPWR.VDGND  -1.048E-03

    TOTAL POWER DISSIPATION   2.02E-01  WATTS


**** 11/06/17 21:33:09 ****** PSpice 17.2.0 (March 2016) ****** ID# 0 ********

 ** Profile: "Gain-Phase-AC"  [ C:\Users\Nicolai Fransen\Documents\GitHub\E7BACDriver\P-Spice\Simulering med 3f3\Flyback_diagram TEST


 ****     SMALL SIGNAL BIAS SOLUTION       TEMPERATURE =   27.000 DEG C

 ****     CURRENT STEP                     PARAM PSCALE =    1     


******************************************************************************



 NODE   VOLTAGE     NODE   VOLTAGE     NODE   VOLTAGE     NODE   VOLTAGE


($G_DGND)    0.0000                   ($G_DPWR)    5.0000                       

(N1354120)   26.0000                  (N1354130)    -.9374                      

(N8192521)    -.9321                  (Flyback_N02226)    1.0084                

(Flyback_N12578)    6.0005            (Flyback_N14138)   26.0000                

(Flyback_N14259) 5.200E-06            (Flyback_N14338) 5.200E-06                

(Flyback_N14535)    5.0060            (Flyback_N14542)    0.0000                

(Flyback_N15349)   12.0000            (Flyback_FLY_N12010)   26.0000            

(Flyback_FLY_N12020)    0.0000        (Flyback_FLY_N12030)    -.1333            

(Flyback_FLY_N12076)   26.0000        (Flyback_FLY_N12134) 4.485E-09            

(Flyback_FLY_N13092) 585.0E-12        (Flyback_IF_N129151)   26.0000            

(X_Flyback_FLY_M1.4)    0.0000        (X_Flyback_FLY_M1.5)   26.0000            

(X_Flyback_FLY_M1.6)   26.0000        (X_Flyback_FLY_M1.7) 4.765E-09            

(X_Flyback_FLY_M1.8) 5.200E-06        (X_Flyback_FLY_M1.9)   26.0000            

(X_Flyback_FLY_M1.10)   26.0000       (X_Flyback_FLY_M1.11)   26.0000           

(Flyback_FLY_UCC_N1359250)    3.5000  (Flyback_FLY_UCC_N1359348)    0.0000      

(Flyback_FLY_UCC_N1359366)    0.0000  (Flyback_FLY_UCC_N1359394)     .0900      

(Flyback_FLY_UCC_N1359552)    1.0000  (Flyback_FLY_UCC_N1359568)    0.0000      

(Flyback_FLY_UCC_N1359716)    0.0000  (Flyback_FLY_UCC_EA_N410319)    2.5030    

(Flyback_FLY_UCC_EA_N410325) 1494.6000                                          

(Flyback_FLY_UCC_EA_N410331)    6.0000                                          

(Flyback_FLY_UCC_EA_N410335)    4.8005                                          

(Flyback_FLY_UCC_EA_N410341)    1.6002                                          

(Flyback_FLY_UCC_UVR_N235159)    1.0000                                         

(Flyback_FLY_UCC_UVR_N235173)    5.0065                                         

(Flyback_FLY_UCC_UVR_N235221)    5.0065                                         

(X$Flyback_FLY_UCC_N1359716_AtoD1.1)     .0915                                  

(X$Flyback_FLY_UCC_N1359716_AtoD1.2)     .0457                                  

(X$Flyback_FLY_UCC_N1359716_AtoD1.3)     .8277           



 DGTL NODE : STATE  DGTL NODE : STATE  DGTL NODE : STATE  DGTL NODE : STATE


(Flyback_FLY_UCC_N1359250$AtoD) : 1   (X_Flyback_FLY_UCC_U3.RBAR) : 1           

(Flyback_FLY_UCC_N1359206) : 0        (   $D_HI) : 1                            

(Flyback_FLY_UCC_N1359656) : 0        (X_Flyback_FLY_UCC_U3.SBAR) : 1           

(Flyback_FLY_UCC_N1359408) : 1        (M_UN0001) : 0                            

(Flyback_FLY_UCC_N1359366$AtoD) : 0   (Flyback_FLY_UCC_N1359394$DtoA) : 0       

(  0$AtoD) : 0     (Flyback_FLY_UCC_N1359166) : 1        (M_UN0002) : 0         

(Flyback_FLY_UCC_N1359214) : 1        (Flyback_FLY_UCC_N1359716$AtoD) : 0       

( 0$AtoD2) : 0     




    VOLTAGE SOURCE CURRENTS
    NAME         CURRENT

    V_Vmb1      -2.600E-05
    V_Flyback_FLY_UCC_EA_Vos   0.000E+00
    V_Flyback_FLY_UCC_Vramp   0.000E+00
    V_Flyback_FLY_UCC_Vclk   0.000E+00
    V_Flyback_V1  -1.110E-02
    X_Flyback_FLY_M1.VFI2   2.600E-11
    X_Flyback_FLY_M1.VFI1   0.000E+00
    X_Flyback_FLY_UCC_UVR_F1.VF_Flyback_FLY_UCC_UVR_F1   1.001E-04
    X$DIGIFPWR.VDPWR  -1.367E-02
    X$DIGIFPWR.VDGND  -1.048E-03

    TOTAL POWER DISSIPATION   2.02E-01  WATTS



          JOB CONCLUDED

**** 11/06/17 21:33:09 ****** PSpice 17.2.0 (March 2016) ****** ID# 0 ********

 ** Profile: "Gain-Phase-AC"  [ C:\Users\Nicolai Fransen\Documents\GitHub\E7BACDriver\P-Spice\Simulering med 3f3\Flyback_diagram TEST


 ****     JOB STATISTICS SUMMARY

 ****     CURRENT STEP                     PARAM PSCALE =    1     


******************************************************************************



  Total job time (using Solver 1)   =         .70
