
**** 12/11/17 09:36:02 ****** PSpice 17.2.0 (March 2016) ****** ID# 0 ********

 ** Profile: "Constant load-Tran"  [ C:\Users\Nicolai Fransen\Documents\GitHub\E7BACDriver\P-Spice\Simulering med 3f3\2. iteration\fl


 ****     CIRCUIT DESCRIPTION


******************************************************************************




** Creating circuit file "Tran.cir" 
** WARNING: THIS AUTOMATICALLY GENERATED FILE MAY BE OVERWRITTEN BY SUBSEQUENT SIMULATIONS

*Libraries: 
* Profile Libraries :
* Local Libraries :
.LIB "C:/Cadence/SPB_17.2/tools/pspice/library/nom.lib" 
.LIB "C:/Cadence/Company/OrCAD_PSpice/Models/sample_models.lib" 
.LIB "C:/Cadence/Company/OrCAD_PSpice/Models/pspice_demokit.lib" 
.LIB "C:/Users/Nicolai Fransen/Documents/GitHub/E7BACDriver/P-Spice/Simulering med 3f3/uccx813-1.lib" 
.LIB "C:/Users/Nicolai Fransen/Documents/GitHub/E7BACDriver/P-Spice/Simulering med 3f3/ntsv30120ctg.lib" 
.LIB "C:/Users/Nicolai Fransen/Documents/GitHub/E7BACDriver/P-Spice/Simulering med 3f3/fdpf770n15a.lib" 
.LIB "C:/Cadence/SMPS PSpice Kursus/PSpice Files/Library/Smps/PSpice/Ferrite.lib" 
* From [PSPICE NETLIST] section of C:\Cadence\SPB_Data\cdssetup\OrCAD_PSpice\17.2.0\PSpice.ini file:

*Analysis directives: 
----------------------------------------------------------------------------------$
ERROR(ORPSIM-16276): Can't find library
.TRAN/OP 10ns 10m 5m 1u SKIPBP 
.OPTIONS ADVCONV
.PROBE64 V(alias(*)) I(alias(*)) W(alias(*)) D(alias(*)) NOISE(alias(*)) 
.INC "..\Constant load.net" 



**** INCLUDING "Constant load.net" ****
* source FLYBACK_2ITERATION_TEST
G_Gload         OUT 0 Value = {V(Out)/Rload*Pscale}
V_FB_V1         FB_N15349 0 12V
R_FB_Rcomp         FB_N02226 FB_N19124  10k TC=0,0 
C_FB_CT         0 FB_N14542  200p  TC=0,0 
C_FB_Ccomp         FB_N19132 FB_N19124  50nF  TC=0,0 
C_FB_Cref         0 FB_N14535  1u  TC=0,0 
C_FB_Cf         0 FB_N14338  100p  TC=0,0 
R_FB_RFB1         FB_N02226 OUT  18.7k TC=0,0 
C_FB_Cvcc         0 FB_N15349  1u  TC=0,0 
R_FB_Rf         FB_N14259 FB_N14338  1.4k TC=0,0 
R_FB_PS_Rg         FB_PS_GATE FB_PS_N15331  50R TC=0,0 
L_FB_PS_Lmp         FB_PS_N16991 FB_PS_N16995  {Lm}  
Kn_FB_PS_K1         L_FB_PS_Lp L_FB_PS_Ls     0.99733 KRM8/i/AL160_3F3
L_FB_PS_Lp         FB_PS_N12010 FB_PS_N16991  {N}  
X_FB_PS_M1         FB_PS_N16995 FB_PS_GATE FB_N14259 IRF630
R_FB_PS_Rlp         FB_PS_N12010 FB_N14138  {Rlp/3} TC=0,0 
X_FB_PS_U1         FB_N19132 FB_N02226 FB_N14338 FB_N14542 0 FB_PS_N15331
+  FB_N15349 FB_N14535 UCCx813-1
L_FB_PS_Ls         0 FB_PS_N17058  {N}  
R_FB_PS_Rls         FB_PS_ANODE FB_PS_N12024  {Rls/3} TC=0,0 
D_FB_PS_D1         FB_PS_ANODE OUT Dntsv30120ctg 
L_FB_PS_Lms         FB_PS_N17058 FB_PS_N12024  {Lm}  
R_FB_RFB21         0 FB_N02226  2.55k TC=0,0 
R_FB_RT         FB_N14542 FB_N14535  37.5k TC=0,0 
C_FB_IF_Cin1         0 FB_N14138  10u  TC=0,0 
C_FB_IF_Cin2         0 FB_IF_N129151  40u  TC=0,0 
L_FB_IF_Lin         N1356384 FB_N14138  3u  
R_FB_IF_Rin         FB_IF_N129151 FB_N14138  800m TC=0,0 
R_FB_Rcs         0 FB_N14259  167m TC=0,0 
R_FB_RFB22         0 FB_N02226  280k TC=0,0 
C_FB_Cout         0 FB_N1359989  224uF  TC=0,0 
L_FB_Lesl1         OUT FB_N1359969  9.7nH  
R_FB_Resr1         FB_N1359989 FB_N1359969  2.5m TC=0,0 
V_Vmb         N1356384 0  
+PULSE 0V 26V 1ms 1ms 1ms 0.9s 1s
.PARAM  pscale=1 iout=2.5a n=19 lm=76nh rlp=160m vout=21v rls=160m rload={8.4r}

**** RESUMING Tran.cir ****
.END
