
**** 11/29/17 16:13:38 ****** PSpice 17.2.0 (March 2016) ****** ID# 0 ********

 ** Profile: "Constant load-Tran"  [ C:\Users\Jesper\Documents\GitHub\E7BACDriver\P-Spice\Simulering med 3f3\2. iteration\Flyback_2it


 ****     CIRCUIT DESCRIPTION


******************************************************************************




** Creating circuit file "Tran.cir" 
** WARNING: THIS AUTOMATICALLY GENERATED FILE MAY BE OVERWRITTEN BY SUBSEQUENT SIMULATIONS

*Libraries: 
* Profile Libraries :
* Local Libraries :
.LIB "C:/Cadence/SMPS PSpice Kursus/PSpice Files/Library/Smps/PSpice/Ferrite.lib" 
.LIB "C:/Users/Jesper/Documents/GitHub/E7BACDriver/P-Spice/Simulering med 3f3/uccx813-1.lib" 
.LIB "C:/Users/Jesper/Documents/GitHub/E7BACDriver/P-Spice/Simulering med 3f3/ntsv30120ctg.lib" 
.LIB "C:/Users/Jesper/Documents/GitHub/E7BACDriver/P-Spice/Simulering med 3f3/fdpf770n15a.lib" 
* From [PSPICE NETLIST] section of C:\Users\Jesper\AppData\Roaming\SPB_Data\cdssetup\OrCAD_PSpice\17.2.0\PSpice.ini file:
.lib "nom.lib" 
.lib "C:\Cadence\Company\OrCAD_PSpice\Models\pspice_demokit.lib" 
.lib "C:\Cadence\Company\OrCAD_PSpice\Models\sample_models.lib" 

*Analysis directives: 
.TRAN/OP 10ns 20m 19.9m 1u SKIPBP 
.OPTIONS ADVCONV
.PROBE64 V(alias(*)) I(alias(*)) W(alias(*)) D(alias(*)) NOISE(alias(*)) 
.INC "..\Constant load.net" 



**** INCLUDING "Constant load.net" ****
* source FLYBACK_2ITERATION_TEST
G_Gload         OUT 0 Value = {V(Out)/Rload*Pscale}
V_FB_V1         FB_N15349 0 12V
R_FB_Rcomp         FB_N02226 FB_N19124  10k TC=0,0 
C_FB_CT         0 FB_N14542  200p  TC=0,0 
C_FB_Ccomp         FB_N19132 FB_N19124  50nF  TC=0,0 
C_FB_Cref         0 FB_N14535  1u  TC=0,0 
C_FB_Cf         0 FB_N14338  100p  TC=0,0 
R_FB_RFB1         FB_N02226 OUT  18.7k TC=0,0 
C_FB_Cvcc         0 FB_N15349  1u  TC=0,0 
R_FB_Rf         FB_N14259 FB_N14338  1.4k TC=0,0 
R_FB_PS_Rg         FB_PS_GATE FB_PS_N15331  50R TC=0,0 
L_FB_PS_Lmp         FB_PS_N16991 FB_PS_N16995  {Lm}  
Kn_FB_PS_K1         L_FB_PS_Lp L_FB_PS_Ls     0.99733 KRM8/i/AL160_3F3
L_FB_PS_Lp         FB_PS_N12010 FB_PS_N16991  {N}  
X_FB_PS_M1         FB_PS_N16995 FB_PS_GATE FB_N14259 IRF630
R_FB_PS_Rlp         FB_PS_N12010 FB_N14138  {Rlp/3} TC=0,0 
X_FB_PS_U1         FB_N19132 FB_N02226 FB_N14338 FB_N14542 0 FB_PS_N15331
+  FB_N15349 FB_N14535 UCCx813-1
L_FB_PS_Ls         0 FB_PS_N17058  {N}  
R_FB_PS_Rls         FB_PS_ANODE FB_PS_N12024  {Rls/3} TC=0,0 
D_FB_PS_D1         FB_PS_ANODE OUT Dntsv30120ctg 
L_FB_PS_Lms         FB_PS_N17058 FB_PS_N12024  {Lm}  
R_FB_RFB21         0 FB_N02226  2.55k TC=0,0 
R_FB_RT         FB_N14542 FB_N14535  37.5k TC=0,0 
L_FB_OF_Lesl4         OUT FB_OF_N24054  {Lesl}  
C_FB_OF_Cout2         0 FB_OF_N23941  {Cout}  TC=0,0 
R_FB_OF_Resr4         FB_OF_N24074 FB_OF_N24054  {Resr} TC=0,0 
L_FB_OF_Lesl2         OUT FB_OF_N23789  {Lesl}  
C_FB_OF_Cout3         0 FB_OF_N24074  {Cout}  TC=0,0 
L_FB_OF_Lesl1         OUT FB_OF_N23692  {Lesl}  
R_FB_OF_Resr2         FB_OF_N23809 FB_OF_N23789  {Resr} TC=0,0 
L_FB_OF_Lesl3         OUT FB_OF_N23921  {Lesl}  
R_FB_OF_Resr1         FB_OF_N23621 FB_OF_N23692  {Resr} TC=0,0 
C_FB_OF_Cout1         0 FB_OF_N23809  {Cout}  TC=0,0 
R_FB_OF_Resr3         FB_OF_N23941 FB_OF_N23921  {Resr} TC=0,0 
C_FB_OF_Cout         0 FB_OF_N23621  {Cout}  TC=0,0 
C_FB_IF_Cin1         0 FB_N14138  10u  TC=0,0 
C_FB_IF_Cin2         0 FB_IF_N129151  40u  TC=0,0 
L_FB_IF_Lin         N1356384 FB_N14138  3u  
R_FB_IF_Rin         FB_IF_N129151 FB_N14138  800m TC=0,0 
R_FB_Rcs         0 FB_N14259  167m TC=0,0 
R_FB_RFB22         0 FB_N02226  280k TC=0,0 
V_Vmb         N1356384 0  
+PULSE 0V 26V 1ms 1ms 1ms 0.9s 1s
.PARAM  resr=10m pscale=1 iout=2.5a n=19 lm=76nh cout=56uf rlp=160m vout=21v
+  rls=160m lesl=38.78nh rload={8.4r}

**** RESUMING Tran.cir ****
.END

**** 11/29/17 16:13:38 ****** PSpice 17.2.0 (March 2016) ****** ID# 0 ********

 ** Profile: "Constant load-Tran"  [ C:\Users\Jesper\Documents\GitHub\E7BACDriver\P-Spice\Simulering med 3f3\2. iteration\Flyback_2it


 ****     Diode MODEL PARAMETERS


******************************************************************************




               Dntsv30120ctg   X_FB_PS_M1.MD   X_FB_PS_M1.MD1  X_FB_PS_M1.MD2  
          IS  344.126000E-06    2.599550E-15    0             100.000000E-12 
           N    1.966            .818263       50                .413904     
          BV    1.000000E+03  200                                            
         IBV  100.000000E-06  250.000000E-06                                 
          RS     .019557         .023224                        3.000000E-06 
         CJO    1.169220E-09  635.847000E-12    1.281880E-09                 
          VJ     .342533        5               1.20026                      
           M     .499105         .772431         .9                          
          FC                                   10.000000E-09                 
          EG     .612843        1                                            
         XTI    5               2.54918                                      


               X_FB_PS_M1.MD3  X_FB_PS_U1._DCLAMP              X_FB_PS_U1._D   
          IS  100.000000E-12   10.000000E-15                   10.000000E-15 
           N     .413904         .01                             .1          


               X_FB_PS_U1._D7_mod 
          IS    1.000000E-06 
           N     .1          
          BV  100            
          RS     .8          
          TT    6.000000E-09 
         CJO    4.000000E-12 
          VJ     .6          
           M     .45         


               X_FB_PS_U1.XVccZen.DZEN 
          IS    1.000000E-09 
           N    2            
          BV   13.432        
         IBV    9.259300E-03 
          RS    7.3771       
          TT   20.000000E-09 
         CJO  620.010000E-12 


               X_FB_PS_U1.XEA.DCLAMP 
          IS   10.000000E-15 
          BV   10            
         IBV     .01         
          RS   10            


               X_FB_PS_U1.XEA.DMOD 
          IS   10.000000E-15 
          TT    1.000000E-09 
         CJO   10.000000E-12 


**** 11/29/17 16:13:38 ****** PSpice 17.2.0 (March 2016) ****** ID# 0 ********

 ** Profile: "Constant load-Tran"  [ C:\Users\Jesper\Documents\GitHub\E7BACDriver\P-Spice\Simulering med 3f3\2. iteration\Flyback_2it


 ****     BJT MODEL PARAMETERS


******************************************************************************




               X_FB_PS_U1.QN380x               X_FB_PS_U1._PNP 
               NPN                             PNP             
       LEVEL    1                               1            
          IS   15.200000E-15                  100.000000E-18 
          BF  105                             500            
          NF    1                               1            
         VAF   98.5                                          
         IKF     .5                                          
         ISE    8.200000E-12                                 
          NE    2                                            
          BR    4                               1            
          NR    1                               1            
         VAR   20                                            
         IKR     .225                                        
         ISS    0                               0            
          RB    1.49                                         
          RE     .373                           0            
          RC     .149                           0            
         CJE   35.500000E-12                    0            
         VJE     .75                             .75         
         CJC   12.200000E-12                    0            
         VJC     .75                             .75         
         MJC     .33                             .33         
        XCJC    1                               1            
         CJS    0                               0            
         VJS     .75                             .75         
          TF  500.000000E-12                                 
          TR   85.000000E-09                                 
         XTB    1.5                                          
          KF    0                               0            
          AF    1                               1            
          CN    2.42                            2.2          
           D     .87                             .52         


               X_FB_PS_U1.XEA.QPMOD 
               PNP             
       LEVEL    1            
          IS  100.000000E-18 
          BF  100            
          NF    1            
          BR    1            
          NR    1            
         ISS    0            
          RE    0            
          RC    0            
         CJE    0            
         VJE     .75         
         CJC    0            
         VJC     .75         
         MJC     .33         
        XCJC    1            
         CJS    0            
         VJS     .75         
          KF    0            
          AF    1            
          CN    2.2          
           D     .52         


**** 11/29/17 16:13:38 ****** PSpice 17.2.0 (March 2016) ****** ID# 0 ********

 ** Profile: "Constant load-Tran"  [ C:\Users\Jesper\Documents\GitHub\E7BACDriver\P-Spice\Simulering med 3f3\2. iteration\Flyback_2it


 ****     MOSFET MODEL PARAMETERS


******************************************************************************




               X_FB_PS_M1.MM   X_FB_PS_U1.XDRIVE._NMOS 
               NMOS            NMOS            
       LEVEL    1               1            
           L  100.000000E-06  100.000000E-06 
           W  100.000000E-06  100.000000E-06 
         VTO    3.90614         3            
          KP    2.70091         1            
       GAMMA    0               0            
         PHI     .6              .6          
      LAMBDA    0               0            
          RD                   10            
          IS    0              10.000000E-15 
          JS    0               0            
          PB     .8              .8          
        PBSW     .8              .8          
          CJ    0             101.851000E-09 
        CJSW    0               0            
        CGSO    7.258450E-06    0            
        CGDO   10.000000E-12    0            
        CGBO    0               0            
        NSUB                    1.000000E+09 
         TOX    0               0            
          XJ    0               0            
       UCRIT   10.000000E+03   10.000000E+03 
      DIOMOD    1               1            
         VFB    0               0            
        LETA    0               0            
        WETA    0               0            
          U0    0               0            
        TEMP    0               0            
         VDD    5               5            
       XPART    0               0            


               X_FB_PS_U1.XDRIVE._PMOS 
               PMOS            
       LEVEL    1            
           L  100.000000E-06 
           W  100.000000E-06 
         VTO   -3            
          KP    1            
       GAMMA    0            
         PHI     .6          
      LAMBDA    0            
          RD    5.5          
          IS   10.000000E-15 
          JS    0            
          PB     .8          
        PBSW     .8          
          CJ  101.851000E-09 
        CJSW    0            
        CGSO    0            
        CGDO    0            
        CGBO    0            
        NSUB    1.000000E+09 
         TOX    0            
          XJ    0            
       UCRIT   10.000000E+03 
      DIOMOD    1            
         VFB    0            
        LETA    0            
        WETA    0            
          U0    0            
        TEMP    0            
         VDD    5            
       XPART    0            


**** 11/29/17 16:13:38 ****** PSpice 17.2.0 (March 2016) ****** ID# 0 ********

 ** Profile: "Constant load-Tran"  [ C:\Users\Jesper\Documents\GitHub\E7BACDriver\P-Spice\Simulering med 3f3\2. iteration\Flyback_2it


 ****     Ferromagnetic Core MODEL PARAMETERS


******************************************************************************




               KRM8/i/AL160_3F3                K3F3            
       LEVEL    2                               2            
        AREA     .63                                         
        PATH    3.84                                         
         GAP     .0488                                       
          MS  390.890000E+03                  390.890000E+03 
           A   29.666                          29.666        
           C     .17883                          .17883      
           K   19.204                          19.204        


**** 11/29/17 16:13:38 ****** PSpice 17.2.0 (March 2016) ****** ID# 0 ********

 ** Profile: "Constant load-Tran"  [ C:\Users\Jesper\Documents\GitHub\E7BACDriver\P-Spice\Simulering med 3f3\2. iteration\Flyback_2it


 ****     Voltage Controlled Switch MODEL PARAMETERS


******************************************************************************




               X_FB_PS_U1.SSWITCH 
         RON  125            
        ROFF   10.000000E+06 
         VON    4            
        VOFF    2            


               X_FB_PS_U1.XUV.SUVLO 
         RON    1            
        ROFF    1.000000E+06 
          VT    8.4          
          VH    1            
          TD    0            

Reducing minimum delta to make the circuit converge.
Reducing minimum delta to make the circuit converge.
Reducing minimum delta to make the circuit converge.
Reducing minimum delta to make the circuit converge.
Reducing minimum delta to make the circuit converge.

ERROR(ORPSIM-15138): Convergence problem in Transient Analysis at Time =  1.763E-03.
         Time step =  333.5E-21, minimum allowable step size =  1.000E-18

  These voltages failed to converge:

    V(FB_PS_N17058)           =    -1.235V  \    -1.231V

  These supply currents failed to converge:

    I(X_FB_PS_U1.XEA.EB1)     =   -37.61uA  \   -35.58uA
    I(V_FB_V1)                =   -14.96mA  \   -15.11mA
    I(X_FB_PS_U1.XEA.V4)      =   830.74nA  \    1.445uA

  These devices failed to converge:
    X_FB_PS_U1.Qtim 



  Last node voltages tried were:

 NODE   VOLTAGE     NODE   VOLTAGE     NODE   VOLTAGE     NODE   VOLTAGE


(  OUT)    3.8383  (N1356384)   19.8440                  (FB_N02226)     .5347  

(FB_N14138)   19.4540                 (FB_N14259)    -.0281                     

(FB_N14338)     .3662                 (FB_N14535)    5.0027                     

(FB_N14542)    1.5662                 (FB_N15349)   12.0000                     

(FB_N19124)     .8816                 (FB_N19132)    1.8673                     

(FB_PS_GATE)    -.8408                (FB_PS_ANODE)    4.3984                   

(FB_OF_N23621)    4.5400              (FB_OF_N23692)    4.5493                  

(FB_OF_N23789)    4.5493              (FB_OF_N23809)    4.5400                  

(FB_OF_N23921)    4.5493              (FB_OF_N23941)    4.5400                  

(FB_OF_N24054)    4.5493              (FB_OF_N24074)    4.5400                  

(FB_PS_N12010)   19.4640              (FB_PS_N12024)    4.6214                  

(FB_PS_N15331)    -.0887              (FB_PS_N16991)   18.2280                  

(FB_PS_N16995)   12.3800              (FB_PS_N17058)   -1.2348                  

(X_FB_PS_M1.4)    0.0000              (X_FB_PS_M1.5)   13.3590                  

(X_FB_PS_M1.6)   13.2840              (X_FB_PS_M1.7)    -.9023                  

(X_FB_PS_M1.8)    -.0281              (X_FB_PS_M1.9)   12.3820                  

(X_FB_PS_U1.1)    2.5013              (X_FB_PS_U1.3) 351.9E-18                  

(X_FB_PS_U1.6)     .1000              (FB_IF_N129151)   19.0130                 

(X_FB_PS_M1.10)   13.2840             (X_FB_PS_M1.11)   13.2840                 

(X_FB_PS_U1.11)     .1000             (X_FB_PS_U1.12)     .1000                 

(X_FB_PS_U1.15)     .1000             (X_FB_PS_U1.16)    5.0000                 

(X_FB_PS_U1.17)     .1000             (X_FB_PS_U1.18)   10.3530                 

(X_FB_PS_U1.19)     .1000             (X_FB_PS_U1.20)     .2000                 

(X_FB_PS_U1.26)   -5.0000             (X_FB_PS_U1.27)    3.5000                 

(X_FB_PS_U1.29)     .1000             (X_FB_PS_U1.32)     .1000                 

(X_FB_PS_U1.33)     .1000             (X_FB_PS_U1.34)     .1000                 

(X_FB_PS_U1.35)    5.0000             (X_FB_PS_U1.36)     .1000                 

(X_FB_PS_U1.37)     .1000             (X_FB_PS_U1.38)     .1000                 

(X_FB_PS_U1.39)    0.0000             (X_FB_PS_U1.41)     .1000                 

(X_FB_PS_U1.43)    5.0000             (X_FB_PS_U1.44)     .6524                 

(X_FB_PS_U1.45)    2.5013             (X_FB_PS_U1.46)     .0727                 

(X_FB_PS_U1.47)   10.3730             (X_FB_PS_U1.52)     .1000                 

(X_FB_PS_U1.53)    4.9950             (X_FB_PS_U1.56)    4.9950                 

(X_FB_PS_U1.57)    5.0000             (X_FB_PS_U1.59)    4.0000                 

(X_FB_PS_U1.60)     .5000             (X_FB_PS_U1.61)     .1001                 

(X_FB_PS_U1.63)    5.0000             (X_FB_PS_U1.64)    1.5000                 

(X_FB_PS_U1.65)    0.0000             (X_FB_PS_U1.66)    2.4500                 

(X_FB_PS_U1.69)     .7800             (X_FB_PS_U1.70)     .3000                 

(X_FB_PS_U1.LEB) 109.3E-15            (X_FB_PS_U1.Tog)    5.0000                

(X_FB_PS_U1.vss)    1.9319            (X_FB_PS_U1.puls)-34.84E-15               

(X_FB_PS_U1.X1.4)     .1000           (X_FB_PS_U1.X3.4)     .1000               

(X_FB_PS_U1.X4.4)    5.0000           (X_FB_PS_U1.X6.4)     .1000               

(X_FB_PS_U1.X7.4)    0.0000           (X_FB_PS_U1.X8.4)     .1000               

(X_FB_PS_U1.CSLEB)    0.0000          (X_FB_PS_U1.ctrst)    0.0000              

(X_FB_PS_U1.X10.4)     .1000          (X_FB_PS_U1.X12.4)     .1000              

(X_FB_PS_U1.X16.4)     .1000          (X_FB_PS_U1.X17.4)     .1000              

(X_FB_PS_U1.X18.4)     .1000          (X_FB_PS_U1.X19.4)    5.0000              

(X_FB_PS_U1.X20.4)     .1000          (X_FB_PS_U1.X21.4)    5.0000              

(X_FB_PS_U1.X29.6)    5.0000          (X_FB_PS_U1.XEA.2)    9.8943              

(X_FB_PS_U1.XEA.7)    1.2319          (X_FB_PS_U1.XHD.6)    5.0000              

(X_FB_PS_U1.XUV.3)   12.0000          (X_FB_PS_U1.XUV.4)   12.0000              

(X_FB_PS_U1.ctimer)    1.9319         (X_FB_PS_U1.oscout)     .1000             

(X_FB_PS_U1.rstosc)     .1000         (X_FB_PS_U1.uvlout)   10.3730             

(X_FB_PS_U1.X0DC.4)     .1000         (X_FB_PS_U1.X13.10)    5.0000             

(X_FB_PS_U1.X13.20)     .1000         (X_FB_PS_U1.X14.10)    5.0000             

(X_FB_PS_U1.X14.20)     .1000         (X_FB_PS_U1.XEA.11)    9.9003             

(X_FB_PS_U1.XEA.13)    9.3299         (X_FB_PS_U1.XEA.16)    1.8953             

(X_FB_PS_U1.XTFF.3)    5.0000         (X_FB_PS_U1.XTFF.4)    5.0000             

(X_FB_PS_U1.XTFF.7)    3.5000         (X_FB_PS_U1.XTFF.8)    3.5000             

(X_FB_PS_U1.XTFF.9)     .3000         (X_FB_PS_U1.XTog.4)    5.0000             

(X_FB_PS_U1.X18.HYS)     .5000        (X_FB_PS_U1.X29.Sin)    0.0000            

(X_FB_PS_U1.X99DC.4)     .1000        (X_FB_PS_U1.XEA.OUT)    9.9003            

(X_FB_PS_U1.XHD.Sin)    0.0000        (X_FB_PS_U1.XLEBD.3)    0.0000            

(X_FB_PS_U1.XROSC.4)     .1000        (X_FB_PS_U1.XTFF.10)    3.5000            

(X_FB_PS_U1.X29.X1.5)    5.0000       (X_FB_PS_U1.X29.X1.7)    0.0000           

(X_FB_PS_U1.X29.X2.4)    0.0000       (X_FB_PS_U1.X29.X3.3)    5.0000           

(X_FB_PS_U1.XDRIVE.2)   -5.0887       (X_FB_PS_U1.XDRIVE.3)   -5.0287           

(X_FB_PS_U1.XEA.OUT1)    9.8960       (X_FB_PS_U1.XEA.OUT2)    9.8944           

(X_FB_PS_U1.XHD.X1.5)    5.0000       (X_FB_PS_U1.XHD.X1.7)    0.0000           

(X_FB_PS_U1.XHD.X2.4)    0.0000       (X_FB_PS_U1.XHD.X3.3)    5.0000           

(X_FB_PS_U1.XRstHD.4)     .1000       (X_FB_PS_U1.XTFF.X1.5)    3.5000          

(X_FB_PS_U1.XTFF.X2.5)     .3000      (X_FB_PS_U1.XTFF.X3.5)    3.5000          

(X_FB_PS_U1.XTFF.X4.5)    3.5000      (X_FB_PS_U1.XTFF.X5.5)     .3000          

(X_FB_PS_U1.XTFF.X6.5)    3.5000      (X_FB_PS_U1.XTFF.X7.4)    5.0000          

(X_FB_PS_U1.XTFF.X8.4)    5.0000      


**** Interrupt ****
**** Param: RELTOL = 0.001
**** Param: ABSTOL = 1e-012
**** Param: VNTOL = 1e-006
**** Param: GMIN = 1e-012
**** Param: TSTOP = 0.02
**** Param: TMAX = 1e-006
**** Param: ITL1 = 150
**** Param: ITL2 = 20
**** Param: ITL4 = 100
**** Param: AutoConverge = 1
**** Param: AutoConverge.ITL1 = 1000
**** Param: AutoConverge.ITL2 = 1000
**** Param: AutoConverge.ITL4 = 1000
**** Param: AutoConverge.RELTOL = 0.05
**** Param: AutoConverge.ABSTOL = 0.001
**** Param: AutoConverge.VNTOL = 0.001
**** Param: AutoConverge.PIVTOL = 1e-010
**** Param: ADVCONV = 1
**** Param: Current_Simulation = 3
**** Param: METHOD = 0
**** Param: TRTOL = 7
**** Param: STEPGMIN = 0
**** Param: GMINSTEPS = 0
**** Param: ITL6 = 0
**** Param: NOSTEPDEP = 0
**** Param: PTRANSTEP = 0
**** Param: GMINSRC = 0
**** Param: PSEUDOTRAN = 0
**** Param: NOSTEPSRC = 0
Convergence problem in transient analysis at Time =  1.763E-03
         Time step =  332.0E-21, minimum allowable step size =  1.000E-18

  These voltages failed to converge:

    V(FB_PS_N17058)           =    -1.228V  \    -1.230V

  These supply currents failed to converge:

    I(X_FB_PS_M1.EV16)        =    74.85mA  \    74.68mA
    I(X_FB_PS_U1.XEA.EB1)     =   -33.07uA  \   -36.47uA
    I(V_FB_V1)                =   -14.89mA  \   -15.11mA
    I(X_FB_PS_M1.VFI2)        =   -74.85mA  \   -74.68mA
    I(X_FB_PS_U1.Vrout)       =    16.36mA  \    15.99mA
    I(X_FB_PS_U1.XEA.V4)      =   -6.568uA  \   -2.094uA

  These devices failed to converge:
    X_FB_PS_U1.XVccZen.D1 X_FB_PS_U1.Qtim 



  Last node voltages tried were:

 NODE   VOLTAGE     NODE   VOLTAGE     NODE   VOLTAGE     NODE   VOLTAGE


(  OUT)    3.8383  (N1356384)   19.8440                  (FB_N02226)     .5347  

(FB_N14138)   19.4540                 (FB_N14259)    -.0281                     

(FB_N14338)     .3662                 (FB_N14535)    5.0027                     

(FB_N14542)    1.5662                 (FB_N15349)   12.0000                     

(FB_N19124)     .8816                 (FB_N19132)    1.8673                     

(FB_PS_GATE)    -.8408                (FB_PS_ANODE)    4.3984                   

(FB_OF_N23621)    4.5400              (FB_OF_N23692)    4.5493                  

(FB_OF_N23789)    4.5493              (FB_OF_N23809)    4.5400                  

(FB_OF_N23921)    4.5493              (FB_OF_N23941)    4.5400                  

(FB_OF_N24054)    4.5493              (FB_OF_N24074)    4.5400                  

(FB_PS_N12010)   19.4640              (FB_PS_N12024)    4.6214                  

(FB_PS_N15331)    -.0887              (FB_PS_N16991)   18.2350                  

(FB_PS_N16995)   12.3800              (FB_PS_N17058)   -1.2276                  

(X_FB_PS_M1.4)    0.0000              (X_FB_PS_M1.5)   13.3590                  

(X_FB_PS_M1.6)   13.2840              (X_FB_PS_M1.7)    -.9023                  

(X_FB_PS_M1.8)    -.0281              (X_FB_PS_M1.9)   12.3820                  

(X_FB_PS_U1.1)    2.5013              (X_FB_PS_U1.3) 351.9E-18                  

(X_FB_PS_U1.6)     .1000              (FB_IF_N129151)   19.0130                 

(X_FB_PS_M1.10)   13.2840             (X_FB_PS_M1.11)   13.2840                 

(X_FB_PS_U1.11)     .1000             (X_FB_PS_U1.12)     .1000                 

(X_FB_PS_U1.15)     .1000             (X_FB_PS_U1.16)    5.0000                 

(X_FB_PS_U1.17)     .1000             (X_FB_PS_U1.18)   10.3530                 

(X_FB_PS_U1.19)     .1000             (X_FB_PS_U1.20)     .2000                 

(X_FB_PS_U1.26)   -5.0000             (X_FB_PS_U1.27)    3.5000                 

(X_FB_PS_U1.29)     .1000             (X_FB_PS_U1.32)     .1000                 

(X_FB_PS_U1.33)     .1000             (X_FB_PS_U1.34)     .1000                 

(X_FB_PS_U1.35)    5.0000             (X_FB_PS_U1.36)     .1000                 

(X_FB_PS_U1.37)     .1000             (X_FB_PS_U1.38)     .1000                 

(X_FB_PS_U1.39)    0.0000             (X_FB_PS_U1.41)     .1000                 

(X_FB_PS_U1.43)    5.0000             (X_FB_PS_U1.44)     .6524                 

(X_FB_PS_U1.45)    2.5013             (X_FB_PS_U1.46)     .0727                 

(X_FB_PS_U1.47)   10.3730             (X_FB_PS_U1.52)     .1000                 

(X_FB_PS_U1.53)    4.9950             (X_FB_PS_U1.56)    4.9950                 

(X_FB_PS_U1.57)    5.0000             (X_FB_PS_U1.59)    4.0000                 

(X_FB_PS_U1.60)     .5000             (X_FB_PS_U1.61)     .1001                 

(X_FB_PS_U1.63)    5.0000             (X_FB_PS_U1.64)    1.5000                 

(X_FB_PS_U1.65)    0.0000             (X_FB_PS_U1.66)    2.4500                 

(X_FB_PS_U1.69)     .7800             (X_FB_PS_U1.70)     .3000                 

(X_FB_PS_U1.LEB) 109.3E-15            (X_FB_PS_U1.Tog)    5.0000                

(X_FB_PS_U1.vss)    1.9319            (X_FB_PS_U1.puls)-34.84E-15               

(X_FB_PS_U1.X1.4)     .1000           (X_FB_PS_U1.X3.4)     .1000               

(X_FB_PS_U1.X4.4)    5.0000           (X_FB_PS_U1.X6.4)     .1000               

(X_FB_PS_U1.X7.4)    0.0000           (X_FB_PS_U1.X8.4)     .1000               

(X_FB_PS_U1.CSLEB)    0.0000          (X_FB_PS_U1.ctrst)    0.0000              

(X_FB_PS_U1.X10.4)     .1000          (X_FB_PS_U1.X12.4)     .1000              

(X_FB_PS_U1.X16.4)     .1000          (X_FB_PS_U1.X17.4)     .1000              

(X_FB_PS_U1.X18.4)     .1000          (X_FB_PS_U1.X19.4)    5.0000              

(X_FB_PS_U1.X20.4)     .1000          (X_FB_PS_U1.X21.4)    5.0000              

(X_FB_PS_U1.X29.6)    5.0000          (X_FB_PS_U1.XEA.2)    9.8943              

(X_FB_PS_U1.XEA.7)    1.2319          (X_FB_PS_U1.XHD.6)    5.0000              

(X_FB_PS_U1.XUV.3)   12.0000          (X_FB_PS_U1.XUV.4)   12.0000              

(X_FB_PS_U1.ctimer)    1.9319         (X_FB_PS_U1.oscout)     .1000             

(X_FB_PS_U1.rstosc)     .1000         (X_FB_PS_U1.uvlout)   10.3730             

(X_FB_PS_U1.X0DC.4)     .1000         (X_FB_PS_U1.X13.10)    5.0000             

(X_FB_PS_U1.X13.20)     .1000         (X_FB_PS_U1.X14.10)    5.0000             

(X_FB_PS_U1.X14.20)     .1000         (X_FB_PS_U1.XEA.11)    9.9003             

(X_FB_PS_U1.XEA.13)    9.3299         (X_FB_PS_U1.XEA.16)    1.8953             

(X_FB_PS_U1.XTFF.3)    5.0000         (X_FB_PS_U1.XTFF.4)    5.0000             

(X_FB_PS_U1.XTFF.7)    3.5000         (X_FB_PS_U1.XTFF.8)    3.5000             

(X_FB_PS_U1.XTFF.9)     .3000         (X_FB_PS_U1.XTog.4)    5.0000             

(X_FB_PS_U1.X18.HYS)     .5000        (X_FB_PS_U1.X29.Sin)    0.0000            

(X_FB_PS_U1.X99DC.4)     .1000        (X_FB_PS_U1.XEA.OUT)    9.9003            

(X_FB_PS_U1.XHD.Sin)    0.0000        (X_FB_PS_U1.XLEBD.3)    0.0000            

(X_FB_PS_U1.XROSC.4)     .1000        (X_FB_PS_U1.XTFF.10)    3.5000            

(X_FB_PS_U1.X29.X1.5)    5.0000       (X_FB_PS_U1.X29.X1.7)    0.0000           

(X_FB_PS_U1.X29.X2.4)    0.0000       (X_FB_PS_U1.X29.X3.3)    5.0000           

(X_FB_PS_U1.XDRIVE.2)   -5.0887       (X_FB_PS_U1.XDRIVE.3)   -5.0287           

(X_FB_PS_U1.XEA.OUT1)    9.8960       (X_FB_PS_U1.XEA.OUT2)    9.8944           

(X_FB_PS_U1.XHD.X1.5)    5.0000       (X_FB_PS_U1.XHD.X1.7)    0.0000           

(X_FB_PS_U1.XHD.X2.4)    0.0000       (X_FB_PS_U1.XHD.X3.3)    5.0000           

(X_FB_PS_U1.XRstHD.4)     .1000       (X_FB_PS_U1.XTFF.X1.5)    3.5000          

(X_FB_PS_U1.XTFF.X2.5)     .3000      (X_FB_PS_U1.XTFF.X3.5)    3.5000          

(X_FB_PS_U1.XTFF.X4.5)    3.5000      (X_FB_PS_U1.XTFF.X5.5)     .3000          

(X_FB_PS_U1.XTFF.X6.5)    3.5000      (X_FB_PS_U1.XTFF.X7.4)    5.0000          

(X_FB_PS_U1.XTFF.X8.4)    5.0000      

Resuming Simulation with the following settings
ITL4 = 354
ABSTOL = 1.41e-009

Convergence problem in transient analysis at Time =  1.783E-03
         Time step =  379.5E-21, minimum allowable step size =  1.000E-18

  These voltages failed to converge:

    V(FB_PS_N17058)           =  -892.00mV  \  -881.30mV

  These supply currents failed to converge:

    I(X_FB_PS_U1.XEA.EB1)     =   -29.71uA  \   -39.05uA
    I(V_FB_V1)                =   -14.21mA  \   -15.35mA
    I(X_FB_PS_U1.XEA.V4)      =   -4.135uA  \   -5.804uA

  These devices failed to converge:
    X_FB_PS_U1.Qtim 



  Last node voltages tried were:

 NODE   VOLTAGE     NODE   VOLTAGE     NODE   VOLTAGE     NODE   VOLTAGE


(  OUT)    4.0608  (N1356384)   20.3700                  (FB_N02226)     .5590  

(FB_N14138)   19.9730                 (FB_N14259)    -.0259                     

(FB_N14338)     .3728                 (FB_N14535)    5.0027                     

(FB_N14542)    1.5799                 (FB_N15349)   12.0000                     

(FB_N19124)     .8959                 (FB_N19132)    1.8926                     

(FB_PS_GATE)    -.7773                (FB_PS_ANODE)    4.6233                   

(FB_OF_N23621)    4.7390              (FB_OF_N23692)    4.7484                  

(FB_OF_N23789)    4.7484              (FB_OF_N23809)    4.7390                  

(FB_OF_N23921)    4.7484              (FB_OF_N23941)    4.7390                  

(FB_OF_N24054)    4.7484              (FB_OF_N24074)    4.7390                  

(FB_PS_N12010)   19.9820              (FB_PS_N12024)    4.8504                  

(FB_PS_N15331)    -.0819              (FB_PS_N16991)   19.0910                  

(FB_PS_N16995)   13.3590              (FB_PS_N17058)    -.8920                  

(X_FB_PS_M1.4)    0.0000              (X_FB_PS_M1.5)   14.2610                  

(X_FB_PS_M1.6)   14.2010              (X_FB_PS_M1.7)    -.8342                  

(X_FB_PS_M1.8)    -.0259              (X_FB_PS_M1.9)   13.3670                  

(X_FB_PS_U1.1)    2.5013              (X_FB_PS_U1.3) 274.1E-18                  

(X_FB_PS_U1.6)     .1000              (FB_IF_N129151)   19.5400                 

(X_FB_PS_M1.10)   14.2010             (X_FB_PS_M1.11)   14.2010                 

(X_FB_PS_U1.11)     .1000             (X_FB_PS_U1.12)     .1000                 

(X_FB_PS_U1.15)     .1000             (X_FB_PS_U1.16)    5.0000                 

(X_FB_PS_U1.17)     .1000             (X_FB_PS_U1.18)   10.3530                 

(X_FB_PS_U1.19)     .1000             (X_FB_PS_U1.20)     .2000                 

(X_FB_PS_U1.26)   -5.0000             (X_FB_PS_U1.27)    3.5000                 

(X_FB_PS_U1.29)     .1000             (X_FB_PS_U1.32)     .1000                 

(X_FB_PS_U1.33)     .1000             (X_FB_PS_U1.34)     .1000                 

(X_FB_PS_U1.35)    5.0000             (X_FB_PS_U1.36)     .1000                 

(X_FB_PS_U1.37)     .1000             (X_FB_PS_U1.38)     .1000                 

(X_FB_PS_U1.39)    0.0000             (X_FB_PS_U1.41)     .1000                 

(X_FB_PS_U1.43)    5.0000             (X_FB_PS_U1.44)     .6676                 

(X_FB_PS_U1.45)    2.5013             (X_FB_PS_U1.46)     .0727                 

(X_FB_PS_U1.47)   10.3730             (X_FB_PS_U1.52)     .1000                 

(X_FB_PS_U1.53)    4.9950             (X_FB_PS_U1.56)    4.9950                 

(X_FB_PS_U1.57)    5.0000             (X_FB_PS_U1.59)    4.0000                 

(X_FB_PS_U1.60)     .5000             (X_FB_PS_U1.61)     .1001                 

(X_FB_PS_U1.63)    5.0000             (X_FB_PS_U1.64)    1.5000                 

(X_FB_PS_U1.65)    0.0000             (X_FB_PS_U1.66)    2.4500                 

(X_FB_PS_U1.69)     .7800             (X_FB_PS_U1.70)     .3000                 

(X_FB_PS_U1.LEB) 455.7E-15            (X_FB_PS_U1.Tog)    5.0000                

(X_FB_PS_U1.vss)    1.9572            (X_FB_PS_U1.puls)-27.14E-15               

(X_FB_PS_U1.X1.4)     .1000           (X_FB_PS_U1.X3.4)     .1000               

(X_FB_PS_U1.X4.4)    5.0000           (X_FB_PS_U1.X6.4)     .1000               

(X_FB_PS_U1.X7.4)    0.0000           (X_FB_PS_U1.X8.4)     .1000               

(X_FB_PS_U1.CSLEB)    0.0000          (X_FB_PS_U1.ctrst)    0.0000              

(X_FB_PS_U1.X10.4)     .1000          (X_FB_PS_U1.X12.4)     .1000              

(X_FB_PS_U1.X16.4)     .1000          (X_FB_PS_U1.X17.4)     .1000              

(X_FB_PS_U1.X18.4)     .1000          (X_FB_PS_U1.X19.4)    5.0000              

(X_FB_PS_U1.X20.4)     .1000          (X_FB_PS_U1.X21.4)    5.0000              

(X_FB_PS_U1.X29.6)    5.0000          (X_FB_PS_U1.XEA.2)    9.8940              

(X_FB_PS_U1.XEA.7)    1.2572          (X_FB_PS_U1.XHD.6)    5.0000              

(X_FB_PS_U1.XUV.3)   12.0000          (X_FB_PS_U1.XUV.4)   12.0000              

(X_FB_PS_U1.ctimer)    1.9572         (X_FB_PS_U1.oscout)     .1000             

(X_FB_PS_U1.rstosc)     .1000         (X_FB_PS_U1.uvlout)   10.3730             

(X_FB_PS_U1.X0DC.4)     .1000         (X_FB_PS_U1.X13.10)    5.0000             

(X_FB_PS_U1.X13.20)     .1000         (X_FB_PS_U1.X14.10)    5.0000             

(X_FB_PS_U1.X14.20)     .1000         (X_FB_PS_U1.XEA.11)    9.8999             

(X_FB_PS_U1.XEA.13)    9.3296         (X_FB_PS_U1.XEA.16)    1.9206             

(X_FB_PS_U1.XTFF.3)    5.0000         (X_FB_PS_U1.XTFF.4)    5.0000             

(X_FB_PS_U1.XTFF.7)    3.5000         (X_FB_PS_U1.XTFF.8)    3.5000             

(X_FB_PS_U1.XTFF.9)     .3000         (X_FB_PS_U1.XTog.4)    5.0000             

(X_FB_PS_U1.X18.HYS)     .5000        (X_FB_PS_U1.X29.Sin)    0.0000            

(X_FB_PS_U1.X99DC.4)     .1000        (X_FB_PS_U1.XEA.OUT)    9.8999            

(X_FB_PS_U1.XHD.Sin)    0.0000        (X_FB_PS_U1.XLEBD.3)    0.0000            

(X_FB_PS_U1.XROSC.4)     .1000        (X_FB_PS_U1.XTFF.10)    3.5000            

(X_FB_PS_U1.X29.X1.5)    5.0000       (X_FB_PS_U1.X29.X1.7)    0.0000           

(X_FB_PS_U1.X29.X2.4)    0.0000       (X_FB_PS_U1.X29.X3.3)    5.0000           

(X_FB_PS_U1.XDRIVE.2)   -5.0819       (X_FB_PS_U1.XDRIVE.3)   -5.0252           

(X_FB_PS_U1.XEA.OUT1)    9.8957       (X_FB_PS_U1.XEA.OUT2)    9.8941           

(X_FB_PS_U1.XHD.X1.5)    5.0000       (X_FB_PS_U1.XHD.X1.7)    0.0000           

(X_FB_PS_U1.XHD.X2.4)    0.0000       (X_FB_PS_U1.XHD.X3.3)    5.0000           

(X_FB_PS_U1.XRstHD.4)     .1000       (X_FB_PS_U1.XTFF.X1.5)    3.5000          

(X_FB_PS_U1.XTFF.X2.5)     .3000      (X_FB_PS_U1.XTFF.X3.5)    3.5000          

(X_FB_PS_U1.XTFF.X4.5)    3.5000      (X_FB_PS_U1.XTFF.X5.5)     .3000          

(X_FB_PS_U1.XTFF.X6.5)    3.5000      (X_FB_PS_U1.XTFF.X7.4)    5.0000          

(X_FB_PS_U1.XTFF.X8.4)    5.0000      

Resuming Simulation with the following settings
ITL4 = 354
ABSTOL = 2e-006



          JOB CONCLUDED
 AutoConverge Simulator Options
 ITL1 = 150
 ITL2 = 20
 ITL4 = 100
 RELTOL = 0.001
 ABSTOL = 1.99526e-006
 VNTOL = 1e-006
 PIVTOL = 1e-013

**** 11/29/17 16:13:38 ****** PSpice 17.2.0 (March 2016) ****** ID# 0 ********

 ** Profile: "Constant load-Tran"  [ C:\Users\Jesper\Documents\GitHub\E7BACDriver\P-Spice\Simulering med 3f3\2. iteration\Flyback_2it


 ****     JOB STATISTICS SUMMARY


******************************************************************************



  Total job time (using Solver 1)   =     1353.38
